                                  MODFLOW-NWT-SWR1 
      U.S. GEOLOGICAL SURVEY MODULAR FINITE-DIFFERENCE GROUNDWATER-FLOW MODEL
                            VERSION 1.2.0 03/01/2020
                    BASED ON MODFLOW-2005 VERSION 1.12.00 02/03/2017

 LIST FILE: ./output/Agwater1_low.lst
                         UNIT    9

 OPENING ./input/Agwater1.ba6
 FILE TYPE:BAS6   UNIT   75   STATUS:OLD    
 FORMAT:FORMATTED              ACCESS:SEQUENTIAL          

 OPENING ./input/Agwater1.upw
 FILE TYPE:UPW   UNIT    7   STATUS:OLD    
 FORMAT:FORMATTED              ACCESS:SEQUENTIAL          

 OPENING ./input/Agwater1.dis
 FILE TYPE:DIS   UNIT    8   STATUS:OLD    
 FORMAT:FORMATTED              ACCESS:SEQUENTIAL          

 OPENING ./input/Agwater1.nwt
 FILE TYPE:NWT   UNIT   13   STATUS:OLD    
 FORMAT:FORMATTED              ACCESS:SEQUENTIAL          

 OPENING ./input/Agwater1.oc
 FILE TYPE:OC   UNIT   14   STATUS:OLD    
 FORMAT:FORMATTED              ACCESS:SEQUENTIAL          

 OPENING ./input/Agwater1.sfr
 FILE TYPE:SFR   UNIT   15   STATUS:OLD    
 FORMAT:FORMATTED              ACCESS:SEQUENTIAL          

 OPENING ./input/Agwater1.ghb
 FILE TYPE:GHB   UNIT   17   STATUS:OLD    
 FORMAT:FORMATTED              ACCESS:SEQUENTIAL          

 OPENING ./input/Agwater1.uzf
 FILE TYPE:UZF   UNIT   19   STATUS:OLD    
 FORMAT:FORMATTED              ACCESS:SEQUENTIAL          

 OPENING ./input/Agwater1.gag
 FILE TYPE:GAGE   UNIT   32   STATUS:OLD    
 FORMAT:FORMATTED              ACCESS:SEQUENTIAL          

 OPENING ./input/seg1_low.tab
 FILE TYPE:DATA   UNIT   55   STATUS:UNKNOWN
 FORMAT:FORMATTED              ACCESS:SEQUENTIAL          

 OPENING ./input/seg9.tab
 FILE TYPE:DATA   UNIT   56   STATUS:UNKNOWN
 FORMAT:FORMATTED              ACCESS:SEQUENTIAL          

 OPENING ./input/Agwater1.ag
 FILE TYPE:AG   UNIT   57   STATUS:OLD    
 FORMAT:FORMATTED              ACCESS:SEQUENTIAL          

 OPENING ./output/Agwater1_low.hed
 FILE TYPE:DATA   UNIT   62   STATUS:UNKNOWN
 FORMAT:FORMATTED              ACCESS:SEQUENTIAL          

 OPENING ./output/Agwater1gw_low.ts5
 FILE TYPE:DATA   UNIT  105   STATUS:UNKNOWN
 FORMAT:FORMATTED              ACCESS:SEQUENTIAL          

 OPENING ./output/Agwater1SW_low.ts9
 FILE TYPE:DATA   UNIT  107   STATUS:UNKNOWN
 FORMAT:FORMATTED              ACCESS:SEQUENTIAL          

 OPENING ./output/Agwater1SW_ET_low.ts9
 FILE TYPE:DATA   UNIT  108   STATUS:UNKNOWN
 FORMAT:FORMATTED              ACCESS:SEQUENTIAL          

 OPENING ./output/Agwater1_low.uzfot
 FILE TYPE:DATA(BINARY)   UNIT   61   STATUS:UNKNOWN
 FORMAT:BINARY                 ACCESS:SEQUENTIAL          

 OPENING ./output/Agwater1cbc_low.unf
 FILE TYPE:DATA(BINARY)   UNIT  102   STATUS:UNKNOWN
 FORMAT:BINARY                 ACCESS:SEQUENTIAL          

 OPENING ./output/Agwater1_low.uzf1
 FILE TYPE:DATA   UNIT   65   STATUS:UNKNOWN
 FORMAT:FORMATTED              ACCESS:SEQUENTIAL          

 OPENING ./output/Agwater1_low.uzf2
 FILE TYPE:DATA   UNIT   66   STATUS:UNKNOWN
 FORMAT:FORMATTED              ACCESS:SEQUENTIAL          

 OPENING ./output/Agwater1_low.uzf3
 FILE TYPE:DATA   UNIT   67   STATUS:UNKNOWN
 FORMAT:FORMATTED              ACCESS:SEQUENTIAL          

 OPENING ./output/Agwater1_low.uzf4
 FILE TYPE:DATA   UNIT   68   STATUS:UNKNOWN
 FORMAT:FORMATTED              ACCESS:SEQUENTIAL          

 OPENING ./output/Agwater1_low.flw
 FILE TYPE:DATA   UNIT   81   STATUS:UNKNOWN
 FORMAT:FORMATTED              ACCESS:SEQUENTIAL          

 OPENING ./output/Agwater1_low.sg1
 FILE TYPE:DATA   UNIT   83   STATUS:UNKNOWN
 FORMAT:FORMATTED              ACCESS:SEQUENTIAL          

 OPENING ./output/Agwater1_low.sg2
 FILE TYPE:DATA   UNIT   84   STATUS:UNKNOWN
 FORMAT:FORMATTED              ACCESS:SEQUENTIAL          

 OPENING ./output/Agwater1_low.sg3
 FILE TYPE:DATA   UNIT   85   STATUS:UNKNOWN
 FORMAT:FORMATTED              ACCESS:SEQUENTIAL          

 OPENING ./output/Agwater1_low.sg4
 FILE TYPE:DATA   UNIT   86   STATUS:UNKNOWN
 FORMAT:FORMATTED              ACCESS:SEQUENTIAL          

 OPENING ./output/Agwater1_low.sg5
 FILE TYPE:DATA   UNIT   87   STATUS:UNKNOWN
 FORMAT:FORMATTED              ACCESS:SEQUENTIAL          

 OPENING ./output/Agwater1_low.sg6
 FILE TYPE:DATA   UNIT   88   STATUS:UNKNOWN
 FORMAT:FORMATTED              ACCESS:SEQUENTIAL          

 OPENING ./output/Agwater1_low.sg7
 FILE TYPE:DATA   UNIT   89   STATUS:UNKNOWN
 FORMAT:FORMATTED              ACCESS:SEQUENTIAL          

 OPENING ./output/Agwater1_low.sg8
 FILE TYPE:DATA   UNIT   90   STATUS:UNKNOWN
 FORMAT:FORMATTED              ACCESS:SEQUENTIAL          

 OPENING ./output/Agwater1_low.sg9
 FILE TYPE:DATA   UNIT   91   STATUS:UNKNOWN
 FORMAT:FORMATTED              ACCESS:SEQUENTIAL          

 BAS -- BASIC PACKAGE, VERSION 1.1.4, 4/01/2018 INPUT READ FROM UNIT   75
 
 MODFLOW was compiled using mixed precision
 Precision of REAL variables:           6
 Precision of DOUBLE PRECISION variables:          15

 DISCRETIZATION INPUT DATA READ FROM UNIT    8
 #Test problem 2-- Discretization input
 #Example problem using the UZF1 Package
    1 LAYERS        15 ROWS        10 COLUMNS
   49 STRESS PERIOD(S) IN SIMULATION
 MODEL TIME UNIT IS SECONDS
 MODEL LENGTH UNIT IS FEET
  Confining bed flag for each layer:
   0

                     DELR =   5000.00    

                     DELC =   5000.00    



           TOP ELEVATION OF LAYER 1
 READING ON UNIT    8 WITH FORMAT: (10F7.0)            

            1           2           3           4           5           6           7           8           9          10
 ........................................................................................................................
   1    1105.       1105.       0.000       0.000       0.000       0.000       0.000       0.000       0.000       0.000    
   2    1105.       1095.       1105.       0.000       0.000       1100.       1100.       1110.       0.000       0.000    
   3    0.000       1100.       1085.       1080.       1078.       1076.       1073.       1090.       0.000       0.000    
   4    1110.       1100.       1090.       1085.       1076.       1080.       1080.       1070.       1100.       0.000    
   5    1110.       1100.       1085.       1080.       1078.       1074.       1077.       1066.       1075.       1080.    
   6    1105.       1095.       1080.       1077.       1073.       1069.       1070.       1063.       1085.       1095.    
   7    1105.       1090.       1075.       1072.       1070.       1065.       1065.       1069.       1090.       0.000    
   8    0.000       1080.       1070.       1068.       1063.       1060.       1063.       1067.       1090.       0.000    
   9    0.000       1075.       1065.       1062.       1058.       1052.       1055.       1065.       1090.       0.000    
  10    0.000       1070.       1060.       1055.       1046.       1046.       1044.       1060.       1088.       1100.    
  11    0.000       1055.       1050.       1045.       1041.       1042.       1040.       1050.       1075.       0.000    
  12    1027.       1028.       1028.       1032.       1032.       1033.       1032.       1040.       1060.       0.000    
  13    997.0       1004.       1008.       1014.       1020.       1027.       1032.       1038.       1050.       0.000    
  14    0.000       1030.       1040.       1045.       1050.       1050.       1050.       1050.       1044.       0.000    
  15    0.000       0.000       1080.       1080.       1080.       1080.       0.000       0.000       0.000       0.000    



             MODEL LAYER BOTTOM EL. FOR LAYER   1
 READING ON UNIT    8 WITH FORMAT: (10F7.0)            

            1           2           3           4           5           6           7           8           9          10
 ........................................................................................................................
   1    1000.       1000.       0.000       0.000       0.000       0.000       0.000       0.000       0.000       0.000    
   2    1000.       900.0       900.0       0.000       0.000       950.0       950.0       950.0       0.000       0.000    
   3    0.000       850.0       670.0       680.0       680.0       770.0       770.0       890.0       0.000       0.000    
   4    925.0       850.0       650.0       650.0       650.0       680.0       740.0       850.0       950.0       0.000    
   5    925.0       800.0       650.0       600.0       600.0       600.0       650.0       720.0       850.0       950.0    
   6    925.0       800.0       650.0       600.0       550.0       600.0       650.0       720.0       850.0       970.0    
   7    925.0       800.0       650.0       600.0       550.0       600.0       650.0       720.0       950.0       0.000    
   8    0.000       850.0       700.0       650.0       570.0       600.0       700.0       850.0       950.0       0.000    
   9    0.000       850.0       700.0       650.0       540.0       580.0       700.0       850.0       950.0       0.000    
  10    0.000       850.0       700.0       630.0       530.0       580.0       650.0       800.0       900.0       950.0    
  11    0.000       850.0       700.0       620.0       580.0       620.0       700.0       800.0       900.0       0.000    
  12    900.0       830.0       710.0       640.0       600.0       650.0       700.0       800.0       900.0       0.000    
  13    900.0       810.0       750.0       700.0       650.0       700.0       750.0       800.0       900.0       0.000    
  14    0.000       950.0       850.0       850.0       850.0       850.0       850.0       850.0       850.0       0.000    
  15    0.000       0.000       950.0       950.0       950.0       950.0       0.000       0.000       0.000       0.000    


 STRESS PERIOD     LENGTH       TIME STEPS     MULTIPLIER FOR DELT    SS FLAG
 ----------------------------------------------------------------------------
        1         86400.00          1                    1.000         SS
        2         2630000.         30                    1.000         TR
        3         2630000.         30                    1.000         TR
        4         2630000.         30                    1.000         TR
        5         2630000.         30                    1.000         TR
        6         2630000.         30                    1.000         TR
        7         2630000.         30                    1.000         TR
        8         2630000.         30                    1.000         TR
        9         2630000.         30                    1.000         TR
       10         2630000.         30                    1.000         TR
       11         2630000.         30                    1.000         TR
       12         2630000.         30                    1.000         TR
       13         2630000.         30                    1.000         TR
       14         2630000.         30                    1.000         TR
       15         2630000.         30                    1.000         TR
       16         2630000.         30                    1.000         TR
       17         2630000.         30                    1.000         TR
       18         2630000.         30                    1.000         TR
       19         2630000.         30                    1.000         TR
       20         2630000.         30                    1.000         TR
       21         2630000.         30                    1.000         TR
       22         2630000.         30                    1.000         TR
       23         2630000.         30                    1.000         TR
       24         2630000.         30                    1.000         TR
       25         2630000.         30                    1.000         TR
       26         2630000.         30                    1.000         TR
       27         2630000.         30                    1.000         TR
       28         2630000.         30                    1.000         TR
       29         2630000.         30                    1.000         TR
       30         2630000.         30                    1.000         TR
       31         2630000.         30                    1.000         TR
       32         2630000.         30                    1.000         TR
       33         2630000.         30                    1.000         TR
       34         2630000.         30                    1.000         TR
       35         2630000.         30                    1.000         TR
       36         2630000.         30                    1.000         TR
       37         2630000.         30                    1.000         TR
       38         2630000.         30                    1.000         TR
       39         2630000.         30                    1.000         TR
       40         2630000.         30                    1.000         TR
       41         2630000.         30                    1.000         TR
       42         2630000.         30                    1.000         TR
       43         2630000.         30                    1.000         TR
       44         2630000.         30                    1.000         TR
       45         2630000.         30                    1.000         TR
       46         2630000.         30                    1.000         TR
       47         2630000.         30                    1.000         TR
       48         2630000.         30                    1.000         TR
       49         2630000.         30                    1.000         TR

 COMBINED STEADY-STATE AND TRANSIENT SIMULATION



 
 #Test Simulation 2-- Example problem using the UZF1 Package                     
 #Modified from example Problem 1 of SFR1 documentation report                   
 THE FREE FORMAT OPTION HAS BEEN SELECTED



                     BOUNDARY ARRAY FOR LAYER   1
 READING ON UNIT   75 WITH FORMAT: (20I4)              

                1           2           3           4           5           6           7           8           9          10
 ............................................................................................................................
   1            1           1           0           0           0           0           0           0           0           0
   2            1           1           1           0           0           1           1           1           0           0
   3            0           1           1           1           1           1           1           1           0           0
   4            1           1           1           1           1           1           1           1           1           0
   5            1           1           1           1           1           1           1           1           1           1
   6            1           1           1           1           1           1           1           1           1           1
   7            1           1           1           1           1           1           1           1           1           0
   8            0           1           1           1           1           1           1           1           1           0
   9            0           1           1           1           1           1           1           1           1           0
  10            0           1           1           1           1           1           1           1           1           1
  11            0           1           1           1           1           1           1           1           1           0
  12            1           1           1           1           1           1           1           1           1           0
  13            1           1           1           1           1           1           1           1           1           0
  14            0           1           1           1           1           1           1           1           1           0
  15            0           0           1           1           1           1           0           0           0           0

 AQUIFER HEAD WILL BE SET TO   6999.0     AT ALL NO-FLOW NODES (IBOUND=0).



                       INITIAL HEAD FOR LAYER   1
 READING ON UNIT   75 WITH FORMAT: (10F8.0)            

            1           2           3           4           5           6           7           8           9          10
 ........................................................................................................................
   1    1093.       1089.       6999.       6999.       6999.       6999.       6999.       6999.       6999.       6999.    
   2    1090.       1087.       1081.       6999.       6999.       1072.       1071.       1071.       6999.       6999.    
   3    6999.       1079.       1078.       1074.       1072.       1071.       1069.       1068.       6999.       6999.    
   4    1069.       1071.       1070.       1067.       1065.       1064.       1064.       1066.       1066.       6999.    
   5    1065.       1064.       1063.       1062.       1061.       1061.       1060.       1062.       1066.       1068.    
   6    1060.       1058.       1057.       1056.       1056.       1057.       1057.       1059.       1062.       1066.    
   7    1056.       1053.       1052.       1051.       1051.       1052.       1053.       1055.       1056.       6999.    
   8    6999.       1046.       1046.       1046.       1046.       1046.       1048.       1050.       1050.       6999.    
   9    6999.       1039.       1039.       1039.       1040.       1041.       1042.       1043.       1044.       6999.    
  10    6999.       1031.       1032.       1033.       1034.       1035.       1037.       1038.       1039.       1042.    
  11    6999.       1021.       1023.       1027.       1029.       1030.       1032.       1034.       1036.       6999.    
  12    1001.       1009.       1015.       1020.       1023.       1026.       1029.       1030.       1034.       6999.    
  13    994.5      1000.0       1007.       1013.       1019.       1024.       1029.       1034.       1036.       6999.    
  14    6999.       1004.       1009.       1014.       1019.       1024.       1029.       1035.       1039.       6999.    
  15    6999.       6999.       1012.       1015.       1019.       1022.       6999.       6999.       6999.       6999.    

 OUTPUT CONTROL IS SPECIFIED ONLY AT TIME STEPS FOR WHICH OUTPUT IS DESIRED
 HEADS WILL BE SAVED WITH FORMAT: (10F10.3)           
 SAVED HEADS WILL BE LABELED
 COMPACT CELL-BY-CELL BUDGET FILES WILL BE WRITTEN
 HEAD PRINT FORMAT CODE IS   4    DRAWDOWN PRINT FORMAT CODE IS   0
 HEADS WILL BE SAVED ON UNIT   62    DRAWDOWNS WILL BE SAVED ON UNIT    0
 # NWT Input File
 # Test Problem 3 for MODFLOW-NWT
 #HEADTOL  FLUXTOL MAXITEROUT THICKFACT LINMETH IPRNWT IBOTAV OPTIONS DBDREDUCE DBDINCREASE DBDGAMMA MOMFACT BACKFLAG MAXBACKITER BACKTOL BACKREDUCE

 NWT1 -- Newton Solver, VERSION 1.1.4, 4/01/2018
         INPUT READ FROM UNIT 13

 SPECIFIED OPTION:
 SOLVER INPUT VALUES ARE SPECIFIED BY USER
 ***XMD linear solver will be used***
 
   CONVERGENCE CRITERION OF   0.100000E-03 FOR HEAD SOLUTION
   AND A TOLERANCE OF   0.100000E+01 FOR FLOW SOLUTION AND 
   A MAXIMUM OF   500 OUTER ITERATIONS. 


   D-B-D REDUCTION FACTOR OF    0.970000E+00 AND 
   A D-B-D INCREASE FACTOR OF    0.100000E-04 AND 
   A D-B-D RELAXATION OF    0.000000E+00 AND 
   A MOMENTUM FACTOR OF    0.100000E+00 .


 ***BACKTRACKING IS INACTIVE***
 XMD -- LINEAR SOLUTION BY XMD PACKAGE VERSION 1.30
     BY MOTOMU IBARAKI, OHIO STATE UNIVERSITY, COLOMBUS, OH
                 INPUT READ FROM UNIT 13
 ACCELERATION METHOD                    (IACL) =         1
 NODE ORDERING FLAG                   (NORDER) =         0
 LEVEL OF FILL                         (LEVEL) =         7
 MAXIMUM NUMBER OF ORTHOGONALIZATIONS  (NORTH) =         7
 INDEX FOR USING REDUCED SYSTEM      (IREDSYS) =         1
 RESID. REDUCTION CONVERGE CRITERION  (RRCTOL) =  0.000000E+00
 INDEX FOR USING DROP TOLERANCE     (IDROPTOL) =         1
 DROP TOLERANCE VALUE                  (EPSRN) =  0.500000E-02
 CONVERGENCE CRITERIA OF           (HCLOSEXMD) =  0.100000E-03
 MAX. NUMBER OF LINEAR ITERATIONS  (MXITERXMD) =        50


 UPW1 -- UPSTREAM WEIGHTING FLOW PACKAGE, VERSION 1.1.4, 4/01/2018
         INPUT READ FROM UNIT  7

 #Layer-Property Flow Package input for test simulation 2
 CELL-BY-CELL FLOWS WILL BE SAVED ON UNIT  102
 No named parameters

   LAYER FLAGS:
 LAYER       LAYTYP          LAYAVG    CHANI           LAYVKA           LAYWET
 ---------------------------------------------------------------------------
    1             1             0     1.000E+00             0             0

   INTERPRETATION OF LAYER FLAGS:
                        INTERBLOCK     HORIZONTAL    DATA IN
         LAYER TYPE   TRANSMISSIVITY   ANISOTROPY   ARRAY VKA   WETTABILITY
 LAYER   (LAYTYP)        (LAYAVG)      (CHANI)     (LAYVKA)       (LAYWET)
 ---------------------------------------------------------------------------
    1   CONVERTIBLE      HARMONIC     1.000E+00    VERTICAL K  NON-WETTABLE



              HYD. COND. ALONG ROWS FOR LAYER   1
 READING ON UNIT    7 WITH FORMAT: (10F5.0)            

            1           2           3           4           5           6           7           8           9          10
 ........................................................................................................................
   1   2.0000E-03  2.0000E-03   0.000       0.000       0.000       0.000       0.000       0.000       0.000       0.000    
   2   4.0000E-04  2.0000E-03  2.0000E-03   0.000       0.000      4.0000E-04  4.0000E-04  4.0000E-04   0.000       0.000    
   3    0.000      4.0000E-04  2.0000E-03  2.0000E-03  4.0000E-04  4.0000E-04  4.0000E-04  4.0000E-04   0.000       0.000    
   4   4.0000E-04  4.0000E-04  4.0000E-04  2.0000E-03  2.0000E-03  2.0000E-03  4.0000E-04  4.0000E-04  4.0000E-04   0.000    
   5   4.0000E-04  4.0000E-04  4.0000E-04  2.0000E-03  2.0000E-03  2.0000E-03  2.0000E-03  2.0000E-03  2.0000E-03  2.0000E-03
   6   4.0000E-04  4.0000E-04  4.0000E-04  2.0000E-03  2.0000E-03  2.0000E-03  2.0000E-03  2.0000E-03  4.0000E-04  4.0000E-04
   7   4.0000E-04  4.0000E-04  4.0000E-04  2.0000E-03  2.0000E-03  2.0000E-03  2.0000E-03  2.0000E-03  4.0000E-04   0.000    
   8    0.000      4.0000E-04  4.0000E-04  2.0000E-03  2.0000E-03  2.0000E-03  2.0000E-03  4.0000E-04  4.0000E-04   0.000    
   9    0.000      4.0000E-04  4.0000E-04  2.0000E-03  2.0000E-03  2.0000E-03  2.0000E-03  4.0000E-04  4.0000E-04   0.000    
  10    0.000      4.0000E-04  4.0000E-04  2.0000E-03  2.0000E-03  2.0000E-03  2.0000E-03  4.0000E-04  4.0000E-04  4.0000E-04
  11    0.000      4.0000E-04  4.0000E-04  2.0000E-03  2.0000E-03  2.0000E-03  2.0000E-03  4.0000E-04  4.0000E-04   0.000    
  12   4.0000E-04  4.0000E-04  2.0000E-03  2.0000E-03  2.0000E-03  2.0000E-03  2.0000E-03  4.0000E-04  4.0000E-04   0.000    
  13   2.0000E-03  2.0000E-03  2.0000E-03  2.0000E-03  2.0000E-03  2.0000E-03  2.0000E-03  2.0000E-03  2.0000E-03   0.000    
  14    0.000      4.0000E-04  4.0000E-04  4.0000E-04  4.0000E-04  4.0000E-04  4.0000E-04  4.0000E-04  2.0000E-03   0.000    
  15    0.000       0.000      4.0000E-04  4.0000E-04  4.0000E-04  4.0000E-04   0.000       0.000       0.000       0.000    

      VERTICAL HYD. COND. =  1.000000E-06 FOR LAYER   1

         SPECIFIC STORAGE =  1.000000E-06 FOR LAYER   1



                     SPECIFIC YIELD FOR LAYER   1
 READING ON UNIT    7 WITH FORMAT: (10F5.0)            

            1           2           3           4           5           6           7           8           9          10
 ........................................................................................................................
   1   0.2000      0.2000       0.000       0.000       0.000       0.000       0.000       0.000       0.000       0.000    
   2   0.1000      0.2000      0.2000       0.000       0.000      0.1000      0.1000      0.1000       0.000       0.000    
   3    0.000      0.1000      0.2000      0.2000      0.1000      0.1000      0.1000      0.1000       0.000       0.000    
   4   0.1000      0.1000      0.1000      0.2000      0.2000      0.2000      0.1000      0.1000      0.1000       0.000    
   5   0.1000      0.1000      0.1000      0.2000      0.2000      0.2000      0.2000      0.2000      0.2000      0.2000    
   6   0.1000      0.1000      0.1000      0.2000      0.2000      0.2000      0.2000      0.2000      0.1000      0.1000    
   7   0.1000      0.1000      0.1000      0.2000      0.2000      0.2000      0.2000      0.2000      0.1000       0.000    
   8    0.000      0.1000      0.1000      0.2000      0.2000      0.2000      0.2000      0.1000      0.1000       0.000    
   9    0.000      0.1000      0.1000      0.2000      0.2000      0.2000      0.2000      0.1000      0.1000       0.000    
  10    0.000      0.1000      0.1000      0.2000      0.2000      0.2000      0.2000      0.1000      0.1000      0.1000    
  11    0.000      0.1000      0.1000      0.2000      0.2000      0.2000      0.2000      0.1000      0.1000       0.000    
  12   0.1000      0.1000      0.2000      0.2000      0.2000      0.2000      0.2000      0.1000      0.1000       0.000    
  13   0.2000      0.2000      0.2000      0.2000      0.2000      0.2000      0.2000      0.2000      0.2000       0.000    
  14    0.000      0.1000      0.1000      0.1000      0.1000      0.1000      0.1000      0.1000      0.2000       0.000    
  15    0.000       0.000      0.1000      0.1000      0.1000      0.1000       0.000       0.000       0.000       0.000    

 GHB -- GENERAL-HEAD BOUNDARY PACKAGE, VERSION 7, 5/2/2005
         INPUT READ FROM UNIT   17
 No named parameters
 MAXIMUM OF      2 ACTIVE GHB CELLS AT ONE TIME
 CELL-BY-CELL FLOWS WILL BE PRINTED WHEN ICBCFL NOT 0


     0 GHB parameters

 SFR7 -- STREAMFLOW ROUTING PACKAGE, VERSION 1.0.5, 2012-04-05
         INPUT READ FROM UNIT  15
 #SFR2 Package input for Testing supplimental pumping and irrigation
 No named parameters

 PROCESSING SFR2 OPTIONS
 
          2 Specified inflow files will be read with a maximum of       1446 row entries per file
 
Stream loss will be calculated as a factor of the streambed hydraulic conductivity. Multiplication factor is equal to     0.1000000015E+00

 END PROCESSING SFR2 OPTIONS
 


 NUMBER OF STREAM REACHES IS   38

 NUMBER OF STREAM SEGMENTS IS    9

 NUMBER OF STREAM PARAMETERS IS    0

 NUMBER OF STREAM SEGMENTS DEFINED USING PARAMETERS IS              0

 MAXIMUM ERROR FOR STREAM LEAKAGE RATES IS  1.00E-06

 CONSTANT FOR MANNINGS EQUATION IS  1.4860E+00



 STREAM OUTPUT WILL BE WRITTEN TO FILE ON UNIT   81


   STREAM NETWORK DESCRIPTION: 

   LAYER    ROW    COL   SEGMENT   REACH     LENGTH
                          NUMBER   NUMBER    IN CELL        
   --------------------------------------------------
      1      1      1       1        1    4.5000E+03
      1      2      2       1        2    7.0000E+03
      1      3      3       1        3    6.0000E+03
      1      3      4       1        4    5.5500E+03
      1      4      5       2        1    6.5000E+03
      1      5      6       2        2    5.0000E+03
      1      6      6       2        3    5.0000E+03
      1      7      6       2        4    5.0000E+03
      1      8      6       2        5    5.0000E+03
      1      3      5       3        1    5.0000E+03
      1      3      6       3        2    5.0000E+03
      1      3      7       3        3    4.5000E+03
      1      4      8       3        4    6.0000E+03
      1      5      8       3        5    5.0000E+03
      1      6      8       3        6    2.0000E+03
      1      5     10       4        1    2.5000E+03
      1      5      9       4        2    5.0000E+03
      1      6      8       4        3    3.5000E+03
      1      6      8       5        1    4.0000E+03
      1      7      7       5        2    5.0000E+03
      1      8      7       5        3    3.5000E+03
      1      8      6       5        4    2.5000E+03
      1      9      6       6        1    5.0000E+03
      1     10      7       6        2    5.0000E+03
      1     11      7       6        3    5.0000E+03
      1     12      7       6        4    5.0000E+03
      1     13      7       6        5    2.0000E+03
      1     14      9       7        1    5.0000E+03
      1     13      8       7        2    5.5000E+03
      1     13      7       7        3    5.0000E+03
      1     13      6       8        1    5.0000E+03
      1     13      5       8        2    5.0000E+03
      1     13      4       8        3    5.0000E+03
      1     13      3       8        4    5.0000E+03
      1     13      2       8        5    5.0000E+03
      1     13      1       8        6    3.0000E+03
      1      8      6       9        1    3.0000E+03
      1      8      5       9        2    3.0000E+03




 UZF1 -- UNSATURATED FLOW PACKAGE, VERSION 1.5, 09/10/2019
         INPUT READ FROM UNIT 19
 #UZF Package input for test simulation 2
 No named parameters

 PROCESSING UZF OPTIONS
 
 
 INITIAL WATER CONTENT (THTI) WILL BE 
READ FOR THE FIRST SS OR TR STRESS PERIOD
 
 
 RESIDUAL WATER CONTENT (THTR) WILL BE 
READ AND USED FOR THE FIRST TRANSIENT STRESS 
PERIOD
 
 
AIR ENTRY PRESSURE AND ROOT PRESSURE WILL BE 
SPECIFIED BY USER AND UZ ET WILL BE SIMULATED 
AS PRESSURE-HEAD DEPENDENT
 
 
INFILTRATION WILL BE REJECTED USING 
LAND SURFACE K
 
 
HYDRAULIC CONDUCTIVITY OF LAND SURFACE 
WILL BE READ
 

 END PROCESSING UZF OPTIONS



            AREAL EXTENT OF UZ FLOW
 READING ON UNIT   19 WITH FORMAT: (20I4)              

                1           2           3           4           5           6           7           8           9          10
 ............................................................................................................................
   1            1           1           0           0           0           0           0           0           0           0
   2            1           1           1           0           0           1           1           1           0           0
   3            0           1           1           1           1           1           1           1           0           0
   4            1           1           1           1           1           1           1           1           1           0
   5            1           1           1           1           1           1           1           1           1           1
   6            1           1           1           1           1           1           1           1           1           1
   7            1           1           1           1           1           1           1           1           1           0
   8            0           1           1           1           1           1           1           1           1           0
   9            0           1           1           1           1           1           1           1           1           0
  10            0           1           1           1           1           1           1           1           1           1
  11            0           1           1           1           1           1           1           1           1           0
  12            1           1           1           1           1           1           1           1           1           0
  13            1           1           1           1           1           1           1           1           1           0
  14            0           1           1           1           1           1           1           1           1           0
  15            0           0           1           1           1           1           0           0           0           0
 OPTION 1 -- RECHARGE IN UZF TO TOP LAYER ONLY 



            ROUTING OVERLAND RUNOFF
 READING ON UNIT   19 WITH FORMAT: (20I4)              

                1           2           3           4           5           6           7           8           9          10
 ............................................................................................................................
   1            1           1           0           0           0           0           0           0           0           0
   2            1           1           1           0           0           3           3           3           0           0
   3            0           1           1           1           3           3           3           3           0           0
   4            8           8           2           2           2           2           2           3           3           0
   5            8           8           8           8           2           2           2           3           4           4
   6            8           8           8           8           8           2           2           4           4           4
   7            8           8           8           8           8           2           5           5           5           0
   8            0           8           8           8           8           2           5           5           5           0
   9            0           8           8           8           8           6           6           6           6           0
  10            0           8           8           8           8           6           6           6           6           6
  11            0           8           8           8           8           8           6           6           7           0
  12            8           8           8           8           8           8           6           7           7           0
  13            8           8           8           8           8           8           7           7           7           0
  14            0           8           8           8           8           8           7           7           7           0
  15            0           0           8           8           8           8           0           0           0           0



               SATURATED VERTICAL K
 READING ON UNIT   19 WITH FORMAT: (10F4.0)            

            1           2           3           4           5           6           7           8           9          10
 ........................................................................................................................
   1   4.6000E-05  4.6000E-05   0.000       0.000       0.000       0.000       0.000       0.000       0.000       0.000    
   2   4.6000E-05  4.6000E-05  4.6000E-05   0.000       0.000      4.6000E-05  4.6000E-05  4.6000E-05   0.000       0.000    
   3    0.000      4.6000E-05  4.6000E-05  4.6000E-05  4.6000E-05  4.6000E-05  4.6000E-05  4.6000E-05   0.000       0.000    
   4   4.6000E-05  4.6000E-05  4.6000E-05  4.6000E-05  4.6000E-05  4.6000E-05  4.6000E-05  4.6000E-05  4.6000E-05   0.000    
   5   4.6000E-05  4.6000E-05  4.6000E-05  4.6000E-05  4.6000E-05  4.6000E-05  4.6000E-05  4.6000E-05  4.6000E-05  4.6000E-05
   6   4.6000E-05  4.6000E-05  4.6000E-05  4.6000E-05  4.6000E-05  4.6000E-05  4.6000E-05  4.6000E-05  4.6000E-05  4.6000E-05
   7   4.6000E-05  4.6000E-05  4.6000E-05  4.6000E-05  4.6000E-05  4.6000E-05  4.6000E-05  4.6000E-05  4.6000E-05   0.000    
   8    0.000      4.6000E-05  4.6000E-05  4.6000E-05  4.6000E-05  4.6000E-05  4.6000E-05  4.6000E-05  4.6000E-05   0.000    
   9    0.000      4.6000E-05  4.6000E-05  4.6000E-05  4.6000E-05  4.6000E-05  4.6000E-05  4.6000E-05  4.6000E-05   0.000    
  10    0.000      4.6000E-05  4.6000E-05  4.6000E-05  4.6000E-05  4.6000E-05  4.6000E-05  4.6000E-05  4.6000E-05  4.6000E-05
  11    0.000      4.6000E-05  4.6000E-05  4.6000E-05  4.6000E-05  4.6000E-05  4.6000E-05  4.6000E-05  4.6000E-05   0.000    
  12   4.6000E-05  4.6000E-05  4.6000E-05  4.6000E-05  4.6000E-05  4.6000E-05  4.6000E-05  4.6000E-05  4.6000E-05   0.000    
  13   4.6000E-05  4.6000E-05  4.6000E-05  4.6000E-05  4.6000E-05  4.6000E-05  4.6000E-05  4.6000E-05  4.6000E-05   0.000    
  14    0.000      4.6000E-05  4.6000E-05  4.6000E-05  4.6000E-05  4.6000E-05  4.6000E-05  4.6000E-05  4.6000E-05   0.000    
  15    0.000       0.000      4.6000E-05  4.6000E-05  4.6000E-05  4.6000E-05   0.000       0.000       0.000       0.000    



            LAND SURFACE VERTICAL K
 READING ON UNIT   19 WITH FORMAT: (10F4.0)            

            1           2           3           4           5           6           7           8           9          10
 ........................................................................................................................
   1   1.0000E-05  1.0000E-05   0.000       0.000       0.000       0.000       0.000       0.000       0.000       0.000    
   2   1.0000E-05  1.0000E-05  1.0000E-05   0.000       0.000      1.0000E-05  1.0000E-05  1.0000E-05   0.000       0.000    
   3    0.000      1.0000E-05  1.0000E-05  1.0000E-05  1.0000E-05  1.0000E-05  1.0000E-05  1.0000E-05   0.000       0.000    
   4   1.0000E-05  1.0000E-05  1.0000E-05  1.0000E-05  1.0000E-05  1.0000E-05  1.0000E-05  1.0000E-05  1.0000E-05   0.000    
   5   1.0000E-05  1.0000E-05  1.0000E-05  1.0000E-05  1.0000E-05  1.0000E-05  1.0000E-05  1.0000E-05  1.0000E-05  1.0000E-05
   6   1.0000E-05  1.0000E-05  1.0000E-05  1.0000E-05  1.0000E-05  1.0000E-05  1.0000E-05  1.0000E-05  1.0000E-05  1.0000E-05
   7   1.0000E-05  1.0000E-05  1.0000E-05  1.0000E-05  1.0000E-05  1.0000E-05  1.0000E-05  1.0000E-05  1.0000E-05   0.000    
   8    0.000      1.0000E-05  1.0000E-05  1.0000E-05  1.0000E-05  1.0000E-05  1.0000E-05  1.0000E-05  1.0000E-05   0.000    
   9    0.000      1.0000E-05  1.0000E-05  1.0000E-05  1.0000E-05  1.0000E-05  1.0000E-05  1.0000E-05  1.0000E-05   0.000    
  10    0.000      1.0000E-05  1.0000E-05  1.0000E-05  1.0000E-05  1.0000E-05  1.0000E-05  1.0000E-05  1.0000E-05  1.0000E-05
  11    0.000      1.0000E-05  1.0000E-05  1.0000E-05  1.0000E-05  1.0000E-05  1.0000E-05  1.0000E-05  1.0000E-05   0.000    
  12   1.0000E-05  1.0000E-05  1.0000E-05  1.0000E-05  1.0000E-05  1.0000E-05  1.0000E-05  1.0000E-05  1.0000E-05   0.000    
  13   1.0000E-05  1.0000E-05  1.0000E-05  1.0000E-05  1.0000E-05  1.0000E-05  1.0000E-05  1.0000E-05  1.0000E-05   0.000    
  14    0.000      1.0000E-05  1.0000E-05  1.0000E-05  1.0000E-05  1.0000E-05  1.0000E-05  1.0000E-05  1.0000E-05   0.000    
  15    0.000       0.000      1.0000E-05  1.0000E-05  1.0000E-05  1.0000E-05   0.000       0.000       0.000       0.000    

     BROOKS-COREY EPSILON =   7.50000    

  SATURATED WATER CONTENT =  0.380000    

   RESIDUAL WATER CONTENT =  0.200000    

    INITIAL WATER CONTENT =  0.200000    

UNSATURATED FLOW RESULTS WILL BE PRINTED TO SEPARATE FILES FOR SELECTED MODEL CELLS, AND TIME STEPS AS DEFINED BY OUTPUT CONTROL PACKAGE 

SELECTED MODEL CELLS ARE: 
 ROW NUMBER  COLUMN NUMBER  FORTRAN UNIT NUMBER  OUTPUT OPTION


       6             4                 65                 1
       6             5                 66                 2
       8             4                 67                 3
       0             0                 68                 4



   9 GAGING STATIONS WERE SPECIFIED.
     (Lakes are identified by a negative value of the Lake Number)
     RECORDS WILL BE WRITTEN TO SEPARATE OUTPUT FILES REPRESENTED BY FOLLOWING UNIT NUMBERS:

 Stream Gages:
  GAGE #   SEGMENT   REACH   UNIT   OUTTYPE
       1       1       4      83       1
       2       2       5      84       1
       3       3       5      85       1
       4       4       3      86       1
       5       5       4      87       4
       6       6       5      88       4
       7       7       3      89       4
       8       8       6      90       4
       9       9       1      91       5





 AG -- AG PACKAGE FOR NWT VERSION 1.1.3,  8/01/2017 INPUT READ FROM UNIT   57
 # AG options

 PROCESSING AG OPTIONS
 
 AGRICULTURAL DEMANDS WILL BE CALCULATED USING ET DEFICIT
 
 
 OPTION TO APPLY SURFACE WATER AS IRRIGATION IS ACTIVE. DIVERTED SURFACE WATER WILL BE APPLIED TO          1 CELLS/RHUS.
 
 
 OPTION TO PUMP SUPPLEMENTARY WATER FOR SURFACE DIVERSION SHORTFALL IS ACTIVATED.  A TOTAL OF             6 SUPPLEMENTAL WELLS ARE ACTIVE
 
 
 OPTION TO APPLY PUMPED WATER AS IRRIGATION IS ACTIVE. PUMPED IRRIGATION WATER WILL BE APPLIED TO          6 CELLS/RHUS.
 
 
 THE MAXIMUM NUMBER OF WELLS FOR SUPPLEMENTING DIVERSIONS OR APPLYING IRRIGATION IS          6 WELLS.
 
 
  UNFORMATTED CELL BY CELL RATES FOR SUP AND IRR WELLS WILL BE SAVED TO FILE UNIT NUMBER         -2
 
 
  UNFORMATTED CELL BY CELL RATES FOR SUP AND IRR WELLS WILL BE SAVED TO FILE UNIT NUMBER         -2
 
 
  UNFORMATTED CELL BY CELL RATES FOR SUP AND IRR WELLS WILL BE SAVED TO FILE UNIT NUMBER         -2
 
 
  UNFORMATTED CELL BY CELL RATES FOR SUP AND IRR WELLS WILL BE SAVED TO FILE UNIT NUMBER         -2
 
 
  GROUND WATER IRRIGATION, POTENTIAL AND ACTUAL ET WILL BE SAVED TO TIMES SERIES OUTPUT FILES.
 
 
  SURFACE WATER IRRIGATION, POTENTIAL AND ACTUAL ET WILL BE SAVED TO TIMES SERIES OUTPUT FILES.
 
 
  SURFACE WATER IRRIGATION, POTENTIAL AND ACTUAL ET WILL BE SAVED TO TIMES SERIES OUTPUT FILES.
 

 END PROCESSING AG OPTIONS
 # AG time series

 PROCESSING TIME SERIES

 FINISHED READING TIME SERIES
 A total number of          1 AG output time series files were activated for SURFACE WATER 
 A total number of          1 AG output time series files were activated for GROUNDWATER 
 A total number of          1 AG output time series files were activated for SURFACE WATER ET
 A total number of          0 AG output time series files were activated for GROUNDWATER ET
1
                            STRESS PERIOD NO.    1, LENGTH =   86400.00    
                            -----------------------------------------------

                              NUMBER OF TIME STEPS =     1

                               MULTIPLIER FOR DELT =     1.000

                            INITIAL TIME STEP SIZE =   86400.00    

 BOUND. NO. LAYER   ROW   COL     STAGE      CONDUCTANCE         
 ----------------------------------------------------------------
      1      1     13      1       988.0          0.3800E-01
      2      1     14      9       1045.          0.3800E-01

      2 GHB CELLS



 CLASSIFICATION & COUNT OF STREAM SEGMENTS BASED ON SOURCE OF INFLOW:

                HEADWATER     DIVERSION     RECEIVES TRIBUTARY FLOW
                ---------     ---------     -----------------------
                     3              2               4



                    INPUT DATA FOR EACH STREAM SEGMENT
 ---------------------------------------------------------------------------------------------

 SEGMENT    SEG.     INFLOW   OVERLAND   STREAM    STREAM   ICALC  OUTFLOW  DIVERSION PRIORITY
    NO.    LENGTH     RATE     RUNOFF      ET       PPT.    METH.  TO SEG.  FROM SEG.    NO.

      1  2.305E+04 2.500E+01 0.000E+00 0.000E+00 0.000E+00    4        2        0        0
      2  2.650E+04 0.000E+00 0.000E+00 0.000E+00 0.000E+00    1        6        0        0
      3  2.750E+04 2.000E+00 0.000E+00 0.000E+00 0.000E+00    0        5        1        0
      4  1.100E+04 1.000E+01 0.000E+00 0.000E+00 0.000E+00    1        5        0        0
      5  1.500E+04 0.000E+00 0.000E+00 0.000E+00 0.000E+00    3        6        0        0
      6  2.200E+04 0.000E+00 0.000E+00 0.000E+00 0.000E+00    1        8        0        0
      7  1.550E+04 1.500E+02 0.000E+00 0.000E+00 0.000E+00    2        8        0        0
      8  2.800E+04 0.000E+00 0.000E+00 0.000E+00 0.000E+00    2        0        0        0
      9  6.000E+03 0.000E+00 0.000E+00 0.000E+00 0.000E+00    1        0        2        0


         STREAMBED PROPERTIES AND STREAM DIMENSIONS

 SEGMENT     BED HYD. COND.      BED THICKNESS     ELEV.-TOP OF BED     WIDTH OF STREAM     DEPTH OF STREAM    STREAM ROUGHNESS
    No.     UPPER     LOWER     UPPER     LOWER     UPPER     LOWER     UPPER     LOWER     UPPER     LOWER   CHANNEL      BANK

     1  3.000E-05 3.000E-05 3.000E+00 3.000E+00 1.095E+03 1.075E+03
     2  3.000E-05 3.000E-05 3.000E+00 3.000E+00 1.075E+03 1.050E+03 1.200E+01 1.200E+01                     3.000E-02
     3  3.000E-05 3.000E-05 2.000E+00 2.000E+00 1.075E+03 1.060E+03 1.000E+01 6.000E+00 2.000E+00 1.000E+00
     4  3.000E-05 3.000E-05 3.000E+00 3.000E+00 1.080E+03 1.060E+03 1.000E+01 1.000E+01                     3.000E-02
     5  3.000E-05 3.000E-05 3.000E+00 3.000E+00 1.060E+03 1.045E+03
     6  3.000E-05 3.000E-05 3.000E+00 3.000E+00 1.045E+03 1.025E+03 1.200E+01 1.200E+01                     3.000E-02
     7  6.000E-05 6.000E-05 3.000E+00 3.000E+00 1.040E+03 1.025E+03                                         2.500E-02 4.500E-02
     8  6.000E-05 6.000E-05 3.000E+00 3.000E+00 1.025E+03 9.900E+02                                         2.500E-02 4.500E-02
     9  0.000E+00 0.000E+00 3.000E+00 3.000E+00 1.079E+03 1.078E+03 4.000E+00 4.000E+00                     3.000E-02

  EIGHT POINT CROSS-SECTION DATA FOR SEGMENTS WITH ICALC = 2
    X VALUES X VALUES START FROM LEFT SIDE LOOKING DOWNSTREAM

     SEGMENT NO.        X1        X2        X3        X4        X5        X6        X7        X8
            7      0.000E+00 1.000E+01 8.000E+01 1.000E+02 1.500E+02 1.700E+02 2.400E+02 2.500E+02
            8      0.000E+00 1.000E+01 8.000E+01 1.000E+02 1.500E+02 1.700E+02 2.400E+02 2.500E+02

    Z VALUES ARE RELATIVE TO STREAMBED ELEVATION

     SEGMENT NO.          Z1        Z2        Z3        Z4        Z5        Z6        Z7        Z8
            7      2.000E+01 1.300E+01 1.000E+01 2.000E+00 0.000E+00 1.000E+01 1.300E+01 2.000E+01
            8      2.500E+01 1.700E+01 1.300E+01 4.000E+00 0.000E+00 1.000E+01 1.600E+01 2.000E+01

 STREAMFLOW RELATION WITH DEPTH IS BASED ON EQUATION Q = CDPTH*(DEPTH)**FDPTH
 STREAMFLOW RELATION WITH WIDTH IS BASED ON EQUATION Q = AWDTH*(WIDTH)**BWDTH

 SEGMENT NO.      CDPTH     FDPTH    AWDTH     BWDTH

          5 3.000E-01 3.500E-01 3.800E+00 6.000E-01

 STREAMFLOW RELATION WITH DEPTH AND WIDTH IS BASED ON TABULATED VALUES

  SEGMENT NO.   STREAMFLOW       DEPTH       WIDTH

          1     5.0000E-01   2.5000E-01   3.0000E+00
          1     1.0000E+00   4.0000E-01   3.5000E+00
          1     2.0000E+00   5.5000E-01   4.2000E+00
          1     4.0000E+00   7.0000E-01   5.3000E+00
          1     7.0000E+00   8.0000E-01   7.0000E+00
          1     1.0000E+01   9.0000E-01   8.5000E+00
          1     2.0000E+01   1.1000E+00   1.2000E+01
          1     3.0000E+01   1.2500E+00   1.4000E+01
          1     5.0000E+01   1.4000E+00   1.7000E+01
          1     7.5000E+01   1.7000E+00   2.0000E+01
          1     1.0000E+02   1.8000E+00   2.2000E+01



TABULAR INFLOWS WERE READ FOR SEGMENT      1
FROM FILE UNIT NUMBER     55

          TIMES                    INFLOWS
         0.0000000000E+00     0.1875000000E+01
         0.8640000000E+05     0.8250000000E+01
         0.2760000000E+07     0.1575000000E+02
         0.5270000000E+07     0.2887500000E+02
         0.7950000000E+07     0.1050000000E+02
         0.1050000000E+08     0.3712500000E+02
         0.1320000000E+08     0.3112500000E+02
         0.1580000000E+08     0.2812500000E+02
         0.1850000000E+08     0.2287500000E+02
         0.2120000000E+08     0.1762500000E+02
         0.2380000000E+08     0.1312500000E+02
         0.2640000000E+08     0.9750000000E+01
         0.2900000000E+08     0.8625000000E+01
         0.3170000000E+08     0.7125000000E+01
         0.3440000000E+08     0.7875000000E+01
         0.3680000000E+08     0.3675000000E+02
         0.3950000000E+08     0.2812500000E+02
         0.4210000000E+08     0.2362500000E+02
         0.4480000000E+08     0.2175000000E+02
         0.4730000000E+08     0.2025000000E+02
         0.5000000000E+08     0.1387500000E+02
         0.5270000000E+08     0.9375000000E+01
         0.5530000000E+08     0.8250000000E+01
         0.5800000000E+08     0.7875000000E+01
         0.6060000000E+08     0.7500000000E+01
         0.6320000000E+08     0.7125000000E+01
         0.6330000000E+08     0.8250000000E+01
         0.6600000000E+08     0.1575000000E+02
         0.6850000000E+08     0.2887500000E+02
         0.7120000000E+08     0.1050000000E+02
         0.7370000000E+08     0.3712500000E+02
         0.7640000000E+08     0.3112500000E+02
         0.7900000000E+08     0.2812500000E+02
         0.8170000000E+08     0.2287500000E+02
         0.8440000000E+08     0.1762500000E+02
         0.8700000000E+08     0.1312500000E+02
         0.8960000000E+08     0.9750000000E+01
         0.9220000000E+08     0.8625000000E+01
         0.9490000000E+08     0.7125000000E+01
         0.9760000000E+08     0.7875000000E+01
         0.1000000000E+09     0.3675000000E+02
         0.1030000000E+09     0.2812500000E+02
         0.1050000000E+09     0.2362500000E+02
         0.1080000000E+09     0.2175000000E+02
         0.1110000000E+09     0.2025000000E+02
         0.1130000000E+09     0.1387500000E+02
         0.1160000000E+09     0.9375000000E+01
         0.1190000000E+09     0.8250000000E+01
         0.1210000000E+09     0.7875000000E+01
         0.1240000000E+09     0.7500000000E+01
         0.1260000000E+09     0.7125000000E+01
TABULAR INFLOWS WERE READ FOR SEGMENT      9
FROM FILE UNIT NUMBER     56

          TIMES                    INFLOWS
         0.0000000000E+00     0.1000000000E+03
         0.8640000000E+05     0.1000000000E+03
         0.1730000000E+06     0.1000000000E+03
         0.2590000000E+06     0.1000000000E+03
         0.3460000000E+06     0.1000000000E+03
         0.4320000000E+06     0.1000000000E+03
         0.5180000000E+06     0.1000000000E+03
         0.6050000000E+06     0.1000000000E+03
         0.6910000000E+06     0.1000000000E+03
         0.7780000000E+06     0.1000000000E+03
         0.8640000000E+06     0.1000000000E+03
         0.9500000000E+06     0.1000000000E+03
         0.1040000000E+07     0.1000000000E+03
         0.1120000000E+07     0.1000000000E+03
         0.1210000000E+07     0.1000000000E+03
         0.1300000000E+07     0.1000000000E+03
         0.1380000000E+07     0.1000000000E+03
         0.1470000000E+07     0.1000000000E+03
         0.1560000000E+07     0.1000000000E+03
         0.1640000000E+07     0.1000000000E+03
         0.1730000000E+07     0.1000000000E+03
         0.1810000000E+07     0.1000000000E+03
         0.1900000000E+07     0.1000000000E+03
         0.1990000000E+07     0.1000000000E+03
         0.2070000000E+07     0.1000000000E+03
         0.2160000000E+07     0.1000000000E+03
         0.2250000000E+07     0.1000000000E+03
         0.2330000000E+07     0.1000000000E+03
         0.2420000000E+07     0.1000000000E+03
         0.2510000000E+07     0.1000000000E+03
         0.2590000000E+07     0.1000000000E+03
         0.2680000000E+07     0.1000000000E+03
         0.2760000000E+07     0.1000000000E+03
         0.2850000000E+07     0.1000000000E+03
         0.2940000000E+07     0.1000000000E+03
         0.3020000000E+07     0.1000000000E+03
         0.3110000000E+07     0.1000000000E+03
         0.3200000000E+07     0.1000000000E+03
         0.3280000000E+07     0.1000000000E+03
         0.3370000000E+07     0.1000000000E+03
         0.3460000000E+07     0.1000000000E+03
         0.3540000000E+07     0.1000000000E+03
         0.3630000000E+07     0.1000000000E+03
         0.3720000000E+07     0.1000000000E+03
         0.3800000000E+07     0.1000000000E+03
         0.3890000000E+07     0.1000000000E+03
         0.3970000000E+07     0.1000000000E+03
         0.4060000000E+07     0.1000000000E+03
         0.4150000000E+07     0.1000000000E+03
         0.4230000000E+07     0.1000000000E+03
         0.4320000000E+07     0.1000000000E+03
         0.4410000000E+07     0.1000000000E+03
         0.4490000000E+07     0.1000000000E+03
         0.4580000000E+07     0.1000000000E+03
         0.4670000000E+07     0.1000000000E+03
         0.4750000000E+07     0.1000000000E+03
         0.4840000000E+07     0.1000000000E+03
         0.4920000000E+07     0.1000000000E+03
         0.5010000000E+07     0.1000000000E+03
         0.5100000000E+07     0.1000000000E+03
         0.5180000000E+07     0.1000000000E+03
         0.5270000000E+07     0.1000000000E+03
         0.5360000000E+07     0.1000000000E+03
         0.5440000000E+07     0.1000000000E+03
         0.5530000000E+07     0.1000000000E+03
         0.5620000000E+07     0.1000000000E+03
         0.5700000000E+07     0.1000000000E+03
         0.5790000000E+07     0.1000000000E+03
         0.5880000000E+07     0.1000000000E+03
         0.5960000000E+07     0.1000000000E+03
         0.6050000000E+07     0.1000000000E+03
         0.6130000000E+07     0.1000000000E+03
         0.6220000000E+07     0.1000000000E+03
         0.6310000000E+07     0.1000000000E+03
         0.6390000000E+07     0.1000000000E+03
         0.6480000000E+07     0.1000000000E+03
         0.6570000000E+07     0.1000000000E+03
         0.6650000000E+07     0.1000000000E+03
         0.6740000000E+07     0.1000000000E+03
         0.6830000000E+07     0.1000000000E+03
         0.6910000000E+07     0.1000000000E+03
         0.7000000000E+07     0.1000000000E+03
         0.7080000000E+07     0.1000000000E+03
         0.7170000000E+07     0.1000000000E+03
         0.7260000000E+07     0.1000000000E+03
         0.7340000000E+07     0.1000000000E+03
         0.7430000000E+07     0.1000000000E+03
         0.7520000000E+07     0.1000000000E+03
         0.7600000000E+07     0.1000000000E+03
         0.7690000000E+07     0.1000000000E+03
         0.7780000000E+07     0.1000000000E+03
         0.7860000000E+07     0.1000000000E+03
         0.7950000000E+07     0.1000000000E+03
         0.8040000000E+07     0.1000000000E+03
         0.8120000000E+07     0.1000000000E+03
         0.8210000000E+07     0.1000000000E+03
         0.8290000000E+07     0.1000000000E+03
         0.8380000000E+07     0.1000000000E+03
         0.8470000000E+07     0.1000000000E+03
         0.8550000000E+07     0.1000000000E+03
         0.8640000000E+07     0.1000000000E+03
         0.8730000000E+07     0.1000000000E+03
         0.8810000000E+07     0.1000000000E+03
         0.8900000000E+07     0.1000000000E+03
         0.8990000000E+07     0.1000000000E+03
         0.9070000000E+07     0.1000000000E+03
         0.9160000000E+07     0.1000000000E+03
         0.9240000000E+07     0.1000000000E+03
         0.9330000000E+07     0.1000000000E+03
         0.9420000000E+07     0.1000000000E+03
         0.9500000000E+07     0.1000000000E+03
         0.9590000000E+07     0.1000000000E+03
         0.9680000000E+07     0.1000000000E+03
         0.9760000000E+07     0.1000000000E+03
         0.9850000000E+07     0.1000000000E+03
         0.9940000000E+07     0.1000000000E+03
         0.1000000000E+08     0.1000000000E+03
         0.1010000000E+08     0.1000000000E+03
         0.1020000000E+08     0.1000000000E+03
         0.1030000000E+08     0.1000000000E+03
         0.1040000000E+08     0.1000000000E+03
         0.1050000000E+08     0.1000000000E+03
         0.1050000000E+08     0.1000000000E+03
         0.1060000000E+08     0.1000000000E+03
         0.1070000000E+08     0.1000000000E+03
         0.1080000000E+08     0.1000000000E+03
         0.1090000000E+08     0.1000000000E+03
         0.1100000000E+08     0.1000000000E+03
         0.1110000000E+08     0.1000000000E+03
         0.1110000000E+08     0.1000000000E+03
         0.1120000000E+08     0.1000000000E+03
         0.1130000000E+08     0.1000000000E+03
         0.1140000000E+08     0.1000000000E+03
         0.1150000000E+08     0.1000000000E+03
         0.1160000000E+08     0.1000000000E+03
         0.1170000000E+08     0.1000000000E+03
         0.1180000000E+08     0.1000000000E+03
         0.1180000000E+08     0.1000000000E+03
         0.1190000000E+08     0.1000000000E+03
         0.1200000000E+08     0.1000000000E+03
         0.1210000000E+08     0.1000000000E+03
         0.1220000000E+08     0.1000000000E+03
         0.1230000000E+08     0.1000000000E+03
         0.1240000000E+08     0.1000000000E+03
         0.1240000000E+08     0.1000000000E+03
         0.1250000000E+08     0.1000000000E+03
         0.1260000000E+08     0.1000000000E+03
         0.1270000000E+08     0.1000000000E+03
         0.1280000000E+08     0.1000000000E+03
         0.1290000000E+08     0.1000000000E+03
         0.1300000000E+08     0.1000000000E+03
         0.1300000000E+08     0.1000000000E+03
         0.1310000000E+08     0.1000000000E+03
         0.1320000000E+08     0.1000000000E+03
         0.1330000000E+08     0.1000000000E+03
         0.1340000000E+08     0.1000000000E+03
         0.1350000000E+08     0.1000000000E+03
         0.1360000000E+08     0.1000000000E+03
         0.1370000000E+08     0.1000000000E+03
         0.1370000000E+08     0.1000000000E+03
         0.1380000000E+08     0.1000000000E+03
         0.1390000000E+08     0.1000000000E+03
         0.1400000000E+08     0.1000000000E+03
         0.1410000000E+08     0.1000000000E+03
         0.1420000000E+08     0.1000000000E+03
         0.1430000000E+08     0.1000000000E+03
         0.1430000000E+08     0.1000000000E+03
         0.1440000000E+08     0.1000000000E+03
         0.1450000000E+08     0.1000000000E+03
         0.1460000000E+08     0.1000000000E+03
         0.1470000000E+08     0.1000000000E+03
         0.1480000000E+08     0.1000000000E+03
         0.1490000000E+08     0.1000000000E+03
         0.1490000000E+08     0.1000000000E+03
         0.1500000000E+08     0.1000000000E+03
         0.1510000000E+08     0.1000000000E+03
         0.1520000000E+08     0.1000000000E+03
         0.1530000000E+08     0.1000000000E+03
         0.1540000000E+08     0.1000000000E+03
         0.1550000000E+08     0.1000000000E+03
         0.1560000000E+08     0.1000000000E+03
         0.1560000000E+08     0.1000000000E+03
         0.1570000000E+08     0.1000000000E+03
         0.1580000000E+08     0.1000000000E+03
         0.1590000000E+08     0.1000000000E+03
         0.1600000000E+08     0.1000000000E+03
         0.1610000000E+08     0.1000000000E+03
         0.1620000000E+08     0.1000000000E+03
         0.1620000000E+08     0.1000000000E+03
         0.1630000000E+08     0.1000000000E+03
         0.1640000000E+08     0.1000000000E+03
         0.1650000000E+08     0.1000000000E+03
         0.1660000000E+08     0.1000000000E+03
         0.1670000000E+08     0.1000000000E+03
         0.1680000000E+08     0.1000000000E+03
         0.1680000000E+08     0.1000000000E+03
         0.1690000000E+08     0.1000000000E+03
         0.1700000000E+08     0.1000000000E+03
         0.1710000000E+08     0.1000000000E+03
         0.1720000000E+08     0.1000000000E+03
         0.1730000000E+08     0.1000000000E+03
         0.1740000000E+08     0.1000000000E+03
         0.1750000000E+08     0.1000000000E+03
         0.1750000000E+08     0.1000000000E+03
         0.1760000000E+08     0.1000000000E+03
         0.1770000000E+08     0.1000000000E+03
         0.1780000000E+08     0.1000000000E+03
         0.1790000000E+08     0.1000000000E+03
         0.1800000000E+08     0.1000000000E+03
         0.1810000000E+08     0.1000000000E+03
         0.1810000000E+08     0.1000000000E+03
         0.1820000000E+08     0.1000000000E+03
         0.1830000000E+08     0.1000000000E+03
         0.1840000000E+08     0.1000000000E+03
         0.1850000000E+08     0.1000000000E+03
         0.1860000000E+08     0.1000000000E+03
         0.1870000000E+08     0.1000000000E+03
         0.1870000000E+08     0.1000000000E+03
         0.1880000000E+08     0.1000000000E+03
         0.1890000000E+08     0.1000000000E+03
         0.1900000000E+08     0.1000000000E+03
         0.1910000000E+08     0.1000000000E+03
         0.1920000000E+08     0.1000000000E+03
         0.1930000000E+08     0.1000000000E+03
         0.1940000000E+08     0.1000000000E+03
         0.1940000000E+08     0.1000000000E+03
         0.1950000000E+08     0.1000000000E+03
         0.1960000000E+08     0.1000000000E+03
         0.1970000000E+08     0.1000000000E+03
         0.1980000000E+08     0.1000000000E+03
         0.1990000000E+08     0.1000000000E+03
         0.2000000000E+08     0.1000000000E+03
         0.2000000000E+08     0.1000000000E+03
         0.2010000000E+08     0.1000000000E+03
         0.2020000000E+08     0.1000000000E+03
         0.2030000000E+08     0.1000000000E+03
         0.2040000000E+08     0.1000000000E+03
         0.2050000000E+08     0.1000000000E+03
         0.2060000000E+08     0.1000000000E+03
         0.2070000000E+08     0.1000000000E+03
         0.2070000000E+08     0.1000000000E+03
         0.2080000000E+08     0.1000000000E+03
         0.2090000000E+08     0.1000000000E+03
         0.2100000000E+08     0.1000000000E+03
         0.2110000000E+08     0.1000000000E+03
         0.2120000000E+08     0.1000000000E+03
         0.2130000000E+08     0.1000000000E+03
         0.2130000000E+08     0.1000000000E+03
         0.2140000000E+08     0.1000000000E+03
         0.2150000000E+08     0.1000000000E+03
         0.2160000000E+08     0.1000000000E+03
         0.2170000000E+08     0.1000000000E+03
         0.2180000000E+08     0.1000000000E+03
         0.2190000000E+08     0.1000000000E+03
         0.2190000000E+08     0.1000000000E+03
         0.2200000000E+08     0.1000000000E+03
         0.2210000000E+08     0.1000000000E+03
         0.2220000000E+08     0.1000000000E+03
         0.2230000000E+08     0.1000000000E+03
         0.2240000000E+08     0.1000000000E+03
         0.2250000000E+08     0.1000000000E+03
         0.2260000000E+08     0.1000000000E+03
         0.2260000000E+08     0.1000000000E+03
         0.2270000000E+08     0.1000000000E+03
         0.2280000000E+08     0.1000000000E+03
         0.2290000000E+08     0.1000000000E+03
         0.2300000000E+08     0.1000000000E+03
         0.2310000000E+08     0.1000000000E+03
         0.2320000000E+08     0.1000000000E+03
         0.2320000000E+08     0.1000000000E+03
         0.2330000000E+08     0.1000000000E+03
         0.2340000000E+08     0.1000000000E+03
         0.2350000000E+08     0.1000000000E+03
         0.2360000000E+08     0.1000000000E+03
         0.2370000000E+08     0.1000000000E+03
         0.2380000000E+08     0.1000000000E+03
         0.2380000000E+08     0.1000000000E+03
         0.2390000000E+08     0.1000000000E+03
         0.2400000000E+08     0.1000000000E+03
         0.2410000000E+08     0.1000000000E+03
         0.2420000000E+08     0.1000000000E+03
         0.2430000000E+08     0.1000000000E+03
         0.2440000000E+08     0.1000000000E+03
         0.2450000000E+08     0.1000000000E+03
         0.2450000000E+08     0.1000000000E+03
         0.2460000000E+08     0.1000000000E+03
         0.2470000000E+08     0.1000000000E+03
         0.2480000000E+08     0.1000000000E+03
         0.2490000000E+08     0.1000000000E+03
         0.2500000000E+08     0.1000000000E+03
         0.2510000000E+08     0.1000000000E+03
         0.2510000000E+08     0.1000000000E+03
         0.2520000000E+08     0.1000000000E+03
         0.2530000000E+08     0.1000000000E+03
         0.2540000000E+08     0.1000000000E+03
         0.2550000000E+08     0.1000000000E+03
         0.2560000000E+08     0.1000000000E+03
         0.2570000000E+08     0.1000000000E+03
         0.2570000000E+08     0.1000000000E+03
         0.2580000000E+08     0.1000000000E+03
         0.2590000000E+08     0.1000000000E+03
         0.2600000000E+08     0.1000000000E+03
         0.2610000000E+08     0.1000000000E+03
         0.2620000000E+08     0.1000000000E+03
         0.2630000000E+08     0.1000000000E+03
         0.2640000000E+08     0.1000000000E+03
         0.2640000000E+08     0.1000000000E+03
         0.2650000000E+08     0.1000000000E+03
         0.2660000000E+08     0.1000000000E+03
         0.2670000000E+08     0.1000000000E+03
         0.2680000000E+08     0.1000000000E+03
         0.2690000000E+08     0.1000000000E+03
         0.2700000000E+08     0.1000000000E+03
         0.2700000000E+08     0.1000000000E+03
         0.2710000000E+08     0.1000000000E+03
         0.2720000000E+08     0.1000000000E+03
         0.2730000000E+08     0.1000000000E+03
         0.2740000000E+08     0.1000000000E+03
         0.2750000000E+08     0.1000000000E+03
         0.2760000000E+08     0.1000000000E+03
         0.2760000000E+08     0.1000000000E+03
         0.2770000000E+08     0.1000000000E+03
         0.2780000000E+08     0.1000000000E+03
         0.2790000000E+08     0.1000000000E+03
         0.2800000000E+08     0.1000000000E+03
         0.2810000000E+08     0.1000000000E+03
         0.2820000000E+08     0.1000000000E+03
         0.2830000000E+08     0.1000000000E+03
         0.2830000000E+08     0.1000000000E+03
         0.2840000000E+08     0.1000000000E+03
         0.2850000000E+08     0.1000000000E+03
         0.2860000000E+08     0.1000000000E+03
         0.2870000000E+08     0.1000000000E+03
         0.2880000000E+08     0.1000000000E+03
         0.2890000000E+08     0.1000000000E+03
         0.2890000000E+08     0.1000000000E+03
         0.2900000000E+08     0.1000000000E+03
         0.2910000000E+08     0.1000000000E+03
         0.2920000000E+08     0.1000000000E+03
         0.2930000000E+08     0.1000000000E+03
         0.2940000000E+08     0.1000000000E+03
         0.2950000000E+08     0.1000000000E+03
         0.2950000000E+08     0.1000000000E+03
         0.2960000000E+08     0.1000000000E+03
         0.2970000000E+08     0.1000000000E+03
         0.2980000000E+08     0.1000000000E+03
         0.2990000000E+08     0.1000000000E+03
         0.3000000000E+08     0.1000000000E+03
         0.3010000000E+08     0.1000000000E+03
         0.3020000000E+08     0.1000000000E+03
         0.3020000000E+08     0.1000000000E+03
         0.3030000000E+08     0.1000000000E+03
         0.3040000000E+08     0.1000000000E+03
         0.3050000000E+08     0.1000000000E+03
         0.3060000000E+08     0.1000000000E+03
         0.3070000000E+08     0.1000000000E+03
         0.3080000000E+08     0.1000000000E+03
         0.3080000000E+08     0.1000000000E+03
         0.3090000000E+08     0.1000000000E+03
         0.3100000000E+08     0.1000000000E+03
         0.3110000000E+08     0.1000000000E+03
         0.3120000000E+08     0.1000000000E+03
         0.3130000000E+08     0.1000000000E+03
         0.3140000000E+08     0.1000000000E+03
         0.3150000000E+08     0.1000000000E+03
         0.3150000000E+08     0.1000000000E+03
         0.3160000000E+08     0.1000000000E+03
         0.3170000000E+08     0.1000000000E+03
         0.3180000000E+08     0.1000000000E+03
         0.3190000000E+08     0.1000000000E+03
         0.3200000000E+08     0.1000000000E+03
         0.3210000000E+08     0.1000000000E+03
         0.3210000000E+08     0.1000000000E+03
         0.3220000000E+08     0.1000000000E+03
         0.3230000000E+08     0.1000000000E+03
         0.3240000000E+08     0.1000000000E+03
         0.3250000000E+08     0.1000000000E+03
         0.3260000000E+08     0.1000000000E+03
         0.3270000000E+08     0.1000000000E+03
         0.3270000000E+08     0.1000000000E+03
         0.3280000000E+08     0.1000000000E+03
         0.3290000000E+08     0.1000000000E+03
         0.3300000000E+08     0.1000000000E+03
         0.3310000000E+08     0.1000000000E+03
         0.3320000000E+08     0.1000000000E+03
         0.3330000000E+08     0.1000000000E+03
         0.3340000000E+08     0.1000000000E+03
         0.3340000000E+08     0.1000000000E+03
         0.3350000000E+08     0.1000000000E+03
         0.3360000000E+08     0.1000000000E+03
         0.3370000000E+08     0.1000000000E+03
         0.3380000000E+08     0.1000000000E+03
         0.3390000000E+08     0.1000000000E+03
         0.3400000000E+08     0.1000000000E+03
         0.3400000000E+08     0.1000000000E+03
         0.3410000000E+08     0.1000000000E+03
         0.3420000000E+08     0.1000000000E+03
         0.3430000000E+08     0.1000000000E+03
         0.3440000000E+08     0.1000000000E+03
         0.3450000000E+08     0.1000000000E+03
         0.3460000000E+08     0.1000000000E+03
         0.3460000000E+08     0.1000000000E+03
         0.3470000000E+08     0.1000000000E+03
         0.3480000000E+08     0.1000000000E+03
         0.3490000000E+08     0.1000000000E+03
         0.3500000000E+08     0.1000000000E+03
         0.3510000000E+08     0.1000000000E+03
         0.3520000000E+08     0.1000000000E+03
         0.3530000000E+08     0.1000000000E+03
         0.3530000000E+08     0.1000000000E+03
         0.3540000000E+08     0.1000000000E+03
         0.3550000000E+08     0.1000000000E+03
         0.3560000000E+08     0.1000000000E+03
         0.3570000000E+08     0.1000000000E+03
         0.3580000000E+08     0.1000000000E+03
         0.3590000000E+08     0.1000000000E+03
         0.3590000000E+08     0.1000000000E+03
         0.3600000000E+08     0.1000000000E+03
         0.3610000000E+08     0.1000000000E+03
         0.3620000000E+08     0.1000000000E+03
         0.3630000000E+08     0.1000000000E+03
         0.3640000000E+08     0.1000000000E+03
         0.3650000000E+08     0.1000000000E+03
         0.3650000000E+08     0.1000000000E+03
         0.3660000000E+08     0.1000000000E+03
         0.3670000000E+08     0.1000000000E+03
         0.3680000000E+08     0.1000000000E+03
         0.3690000000E+08     0.1000000000E+03
         0.3700000000E+08     0.1000000000E+03
         0.3710000000E+08     0.1000000000E+03
         0.3720000000E+08     0.1000000000E+03
         0.3720000000E+08     0.1000000000E+03
         0.3730000000E+08     0.1000000000E+03
         0.3740000000E+08     0.1000000000E+03
         0.3750000000E+08     0.1000000000E+03
         0.3760000000E+08     0.1000000000E+03
         0.3770000000E+08     0.1000000000E+03
         0.3780000000E+08     0.1000000000E+03
         0.3780000000E+08     0.1000000000E+03
         0.3790000000E+08     0.1000000000E+03
         0.3800000000E+08     0.1000000000E+03
         0.3810000000E+08     0.1000000000E+03
         0.3820000000E+08     0.1000000000E+03
         0.3830000000E+08     0.1000000000E+03
         0.3840000000E+08     0.1000000000E+03
         0.3840000000E+08     0.1000000000E+03
         0.3850000000E+08     0.1000000000E+03
         0.3860000000E+08     0.1000000000E+03
         0.3870000000E+08     0.1000000000E+03
         0.3880000000E+08     0.1000000000E+03
         0.3890000000E+08     0.1000000000E+03
         0.3900000000E+08     0.1000000000E+03
         0.3910000000E+08     0.1000000000E+03
         0.3910000000E+08     0.1000000000E+03
         0.3920000000E+08     0.1000000000E+03
         0.3930000000E+08     0.1000000000E+03
         0.3940000000E+08     0.1000000000E+03
         0.3950000000E+08     0.1000000000E+03
         0.3960000000E+08     0.1000000000E+03
         0.3970000000E+08     0.1000000000E+03
         0.3970000000E+08     0.1000000000E+03
         0.3980000000E+08     0.1000000000E+03
         0.3990000000E+08     0.1000000000E+03
         0.4000000000E+08     0.1000000000E+03
         0.4010000000E+08     0.1000000000E+03
         0.4020000000E+08     0.1000000000E+03
         0.4030000000E+08     0.1000000000E+03
         0.4030000000E+08     0.1000000000E+03
         0.4040000000E+08     0.1000000000E+03
         0.4050000000E+08     0.1000000000E+03
         0.4060000000E+08     0.1000000000E+03
         0.4070000000E+08     0.1000000000E+03
         0.4080000000E+08     0.1000000000E+03
         0.4090000000E+08     0.1000000000E+03
         0.4100000000E+08     0.1000000000E+03
         0.4100000000E+08     0.1000000000E+03
         0.4110000000E+08     0.1000000000E+03
         0.4120000000E+08     0.1000000000E+03
         0.4130000000E+08     0.1000000000E+03
         0.4140000000E+08     0.1000000000E+03
         0.4150000000E+08     0.1000000000E+03
         0.4160000000E+08     0.1000000000E+03
         0.4160000000E+08     0.1000000000E+03
         0.4170000000E+08     0.1000000000E+03
         0.4180000000E+08     0.1000000000E+03
         0.4190000000E+08     0.1000000000E+03
         0.4200000000E+08     0.1000000000E+03
         0.4210000000E+08     0.1000000000E+03
         0.4220000000E+08     0.1000000000E+03
         0.4230000000E+08     0.1000000000E+03
         0.4230000000E+08     0.1000000000E+03
         0.4240000000E+08     0.1000000000E+03
         0.4250000000E+08     0.1000000000E+03
         0.4260000000E+08     0.1000000000E+03
         0.4270000000E+08     0.1000000000E+03
         0.4280000000E+08     0.1000000000E+03
         0.4290000000E+08     0.1000000000E+03
         0.4290000000E+08     0.1000000000E+03
         0.4300000000E+08     0.1000000000E+03
         0.4310000000E+08     0.1000000000E+03
         0.4320000000E+08     0.1000000000E+03
         0.4330000000E+08     0.1000000000E+03
         0.4340000000E+08     0.1000000000E+03
         0.4350000000E+08     0.1000000000E+03
         0.4350000000E+08     0.1000000000E+03
         0.4360000000E+08     0.1000000000E+03
         0.4370000000E+08     0.1000000000E+03
         0.4380000000E+08     0.1000000000E+03
         0.4390000000E+08     0.1000000000E+03
         0.4400000000E+08     0.1000000000E+03
         0.4410000000E+08     0.1000000000E+03
         0.4420000000E+08     0.1000000000E+03
         0.4420000000E+08     0.1000000000E+03
         0.4430000000E+08     0.1000000000E+03
         0.4440000000E+08     0.1000000000E+03
         0.4450000000E+08     0.1000000000E+03
         0.4460000000E+08     0.1000000000E+03
         0.4470000000E+08     0.1000000000E+03
         0.4480000000E+08     0.1000000000E+03
         0.4480000000E+08     0.1000000000E+03
         0.4490000000E+08     0.1000000000E+03
         0.4500000000E+08     0.1000000000E+03
         0.4510000000E+08     0.1000000000E+03
         0.4520000000E+08     0.1000000000E+03
         0.4530000000E+08     0.1000000000E+03
         0.4540000000E+08     0.1000000000E+03
         0.4540000000E+08     0.1000000000E+03
         0.4550000000E+08     0.1000000000E+03
         0.4560000000E+08     0.1000000000E+03
         0.4570000000E+08     0.1000000000E+03
         0.4580000000E+08     0.1000000000E+03
         0.4590000000E+08     0.1000000000E+03
         0.4600000000E+08     0.1000000000E+03
         0.4610000000E+08     0.1000000000E+03
         0.4610000000E+08     0.1000000000E+03
         0.4620000000E+08     0.1000000000E+03
         0.4630000000E+08     0.1000000000E+03
         0.4640000000E+08     0.1000000000E+03
         0.4650000000E+08     0.1000000000E+03
         0.4660000000E+08     0.1000000000E+03
         0.4670000000E+08     0.1000000000E+03
         0.4670000000E+08     0.1000000000E+03
         0.4680000000E+08     0.1000000000E+03
         0.4690000000E+08     0.1000000000E+03
         0.4700000000E+08     0.1000000000E+03
         0.4710000000E+08     0.1000000000E+03
         0.4720000000E+08     0.1000000000E+03
         0.4730000000E+08     0.1000000000E+03
         0.4730000000E+08     0.1000000000E+03
         0.4740000000E+08     0.1000000000E+03
         0.4750000000E+08     0.1000000000E+03
         0.4760000000E+08     0.1000000000E+03
         0.4770000000E+08     0.1000000000E+03
         0.4780000000E+08     0.1000000000E+03
         0.4790000000E+08     0.1000000000E+03
         0.4800000000E+08     0.1000000000E+03
         0.4800000000E+08     0.1000000000E+03
         0.4810000000E+08     0.1000000000E+03
         0.4820000000E+08     0.1000000000E+03
         0.4830000000E+08     0.1000000000E+03
         0.4840000000E+08     0.1000000000E+03
         0.4850000000E+08     0.1000000000E+03
         0.4860000000E+08     0.1000000000E+03
         0.4860000000E+08     0.1000000000E+03
         0.4870000000E+08     0.1000000000E+03
         0.4880000000E+08     0.1000000000E+03
         0.4890000000E+08     0.1000000000E+03
         0.4900000000E+08     0.1000000000E+03
         0.4910000000E+08     0.1000000000E+03
         0.4920000000E+08     0.1000000000E+03
         0.4920000000E+08     0.1000000000E+03
         0.4930000000E+08     0.1000000000E+03
         0.4940000000E+08     0.1000000000E+03
         0.4950000000E+08     0.1000000000E+03
         0.4960000000E+08     0.1000000000E+03
         0.4970000000E+08     0.1000000000E+03
         0.4980000000E+08     0.1000000000E+03
         0.4990000000E+08     0.1000000000E+03
         0.4990000000E+08     0.1000000000E+03
         0.5000000000E+08     0.1000000000E+03
         0.5010000000E+08     0.1000000000E+03
         0.5020000000E+08     0.1000000000E+03
         0.5030000000E+08     0.1000000000E+03
         0.5040000000E+08     0.1000000000E+03
         0.5050000000E+08     0.1000000000E+03
         0.5050000000E+08     0.1000000000E+03
         0.5060000000E+08     0.1000000000E+03
         0.5070000000E+08     0.1000000000E+03
         0.5080000000E+08     0.1000000000E+03
         0.5090000000E+08     0.1000000000E+03
         0.5100000000E+08     0.1000000000E+03
         0.5110000000E+08     0.1000000000E+03
         0.5110000000E+08     0.1000000000E+03
         0.5120000000E+08     0.1000000000E+03
         0.5130000000E+08     0.1000000000E+03
         0.5140000000E+08     0.1000000000E+03
         0.5150000000E+08     0.1000000000E+03
         0.5160000000E+08     0.1000000000E+03
         0.5170000000E+08     0.1000000000E+03
         0.5180000000E+08     0.1000000000E+03
         0.5180000000E+08     0.1000000000E+03
         0.5190000000E+08     0.1000000000E+03
         0.5200000000E+08     0.1000000000E+03
         0.5210000000E+08     0.1000000000E+03
         0.5220000000E+08     0.1000000000E+03
         0.5230000000E+08     0.1000000000E+03
         0.5240000000E+08     0.1000000000E+03
         0.5240000000E+08     0.1000000000E+03
         0.5250000000E+08     0.1000000000E+03
         0.5260000000E+08     0.1000000000E+03
         0.5270000000E+08     0.1000000000E+03
         0.5280000000E+08     0.1000000000E+03
         0.5290000000E+08     0.1000000000E+03
         0.5300000000E+08     0.1000000000E+03
         0.5310000000E+08     0.1000000000E+03
         0.5310000000E+08     0.1000000000E+03
         0.5320000000E+08     0.1000000000E+03
         0.5330000000E+08     0.1000000000E+03
         0.5340000000E+08     0.1000000000E+03
         0.5350000000E+08     0.1000000000E+03
         0.5360000000E+08     0.1000000000E+03
         0.5370000000E+08     0.1000000000E+03
         0.5370000000E+08     0.1000000000E+03
         0.5380000000E+08     0.1000000000E+03
         0.5390000000E+08     0.1000000000E+03
         0.5400000000E+08     0.1000000000E+03
         0.5410000000E+08     0.1000000000E+03
         0.5420000000E+08     0.1000000000E+03
         0.5430000000E+08     0.1000000000E+03
         0.5430000000E+08     0.1000000000E+03
         0.5440000000E+08     0.1000000000E+03
         0.5450000000E+08     0.1000000000E+03
         0.5460000000E+08     0.1000000000E+03
         0.5470000000E+08     0.1000000000E+03
         0.5480000000E+08     0.1000000000E+03
         0.5490000000E+08     0.1000000000E+03
         0.5500000000E+08     0.1000000000E+03
         0.5500000000E+08     0.1000000000E+03
         0.5510000000E+08     0.1000000000E+03
         0.5520000000E+08     0.1000000000E+03
         0.5530000000E+08     0.1000000000E+03
         0.5540000000E+08     0.1000000000E+03
         0.5550000000E+08     0.1000000000E+03
         0.5560000000E+08     0.1000000000E+03
         0.5560000000E+08     0.1000000000E+03
         0.5570000000E+08     0.1000000000E+03
         0.5580000000E+08     0.1000000000E+03
         0.5590000000E+08     0.1000000000E+03
         0.5600000000E+08     0.1000000000E+03
         0.5610000000E+08     0.1000000000E+03
         0.5620000000E+08     0.1000000000E+03
         0.5620000000E+08     0.1000000000E+03
         0.5630000000E+08     0.1000000000E+03
         0.5640000000E+08     0.1000000000E+03
         0.5650000000E+08     0.1000000000E+03
         0.5660000000E+08     0.1000000000E+03
         0.5670000000E+08     0.1000000000E+03
         0.5680000000E+08     0.1000000000E+03
         0.5690000000E+08     0.1000000000E+03
         0.5690000000E+08     0.1000000000E+03
         0.5700000000E+08     0.1000000000E+03
         0.5710000000E+08     0.1000000000E+03
         0.5720000000E+08     0.1000000000E+03
         0.5730000000E+08     0.1000000000E+03
         0.5740000000E+08     0.1000000000E+03
         0.5750000000E+08     0.1000000000E+03
         0.5750000000E+08     0.1000000000E+03
         0.5760000000E+08     0.1000000000E+03
         0.5770000000E+08     0.1000000000E+03
         0.5780000000E+08     0.1000000000E+03
         0.5790000000E+08     0.1000000000E+03
         0.5800000000E+08     0.1000000000E+03
         0.5810000000E+08     0.1000000000E+03
         0.5810000000E+08     0.1000000000E+03
         0.5820000000E+08     0.1000000000E+03
         0.5830000000E+08     0.1000000000E+03
         0.5840000000E+08     0.1000000000E+03
         0.5850000000E+08     0.1000000000E+03
         0.5860000000E+08     0.1000000000E+03
         0.5870000000E+08     0.1000000000E+03
         0.5880000000E+08     0.1000000000E+03
         0.5880000000E+08     0.1000000000E+03
         0.5890000000E+08     0.1000000000E+03
         0.5900000000E+08     0.1000000000E+03
         0.5910000000E+08     0.1000000000E+03
         0.5920000000E+08     0.1000000000E+03
         0.5930000000E+08     0.1000000000E+03
         0.5940000000E+08     0.1000000000E+03
         0.5940000000E+08     0.1000000000E+03
         0.5950000000E+08     0.1000000000E+03
         0.5960000000E+08     0.1000000000E+03
         0.5970000000E+08     0.1000000000E+03
         0.5980000000E+08     0.1000000000E+03
         0.5990000000E+08     0.1000000000E+03
         0.6000000000E+08     0.1000000000E+03
         0.6000000000E+08     0.1000000000E+03
         0.6010000000E+08     0.1000000000E+03
         0.6020000000E+08     0.1000000000E+03
         0.6030000000E+08     0.1000000000E+03
         0.6040000000E+08     0.1000000000E+03
         0.6050000000E+08     0.1000000000E+03
         0.6060000000E+08     0.1000000000E+03
         0.6070000000E+08     0.1000000000E+03
         0.6070000000E+08     0.1000000000E+03
         0.6080000000E+08     0.1000000000E+03
         0.6090000000E+08     0.1000000000E+03
         0.6100000000E+08     0.1000000000E+03
         0.6110000000E+08     0.1000000000E+03
         0.6120000000E+08     0.1000000000E+03
         0.6130000000E+08     0.1000000000E+03
         0.6130000000E+08     0.1000000000E+03
         0.6140000000E+08     0.1000000000E+03
         0.6150000000E+08     0.1000000000E+03
         0.6160000000E+08     0.1000000000E+03
         0.6170000000E+08     0.1000000000E+03
         0.6180000000E+08     0.1000000000E+03
         0.6190000000E+08     0.1000000000E+03
         0.6190000000E+08     0.1000000000E+03
         0.6200000000E+08     0.1000000000E+03
         0.6210000000E+08     0.1000000000E+03
         0.6220000000E+08     0.1000000000E+03
         0.6230000000E+08     0.1000000000E+03
         0.6240000000E+08     0.1000000000E+03
         0.6250000000E+08     0.1000000000E+03
         0.6260000000E+08     0.1000000000E+03
         0.6260000000E+08     0.1000000000E+03
         0.6270000000E+08     0.1000000000E+03
         0.6280000000E+08     0.1000000000E+03
         0.6290000000E+08     0.1000000000E+03
         0.6300000000E+08     0.1000000000E+03
         0.6310000000E+08     0.1000000000E+03
         0.6320000000E+08     0.1000000000E+03
         0.6320000000E+08     0.1000000000E+03
         0.6330000000E+08     0.1000000000E+03
         0.6340000000E+08     0.1000000000E+03
         0.6350000000E+08     0.1000000000E+03
         0.6360000000E+08     0.1000000000E+03
         0.6370000000E+08     0.1000000000E+03
         0.6380000000E+08     0.1000000000E+03
         0.6390000000E+08     0.1000000000E+03
         0.6390000000E+08     0.1000000000E+03
         0.6400000000E+08     0.1000000000E+03
         0.6410000000E+08     0.1000000000E+03
         0.6420000000E+08     0.1000000000E+03
         0.6430000000E+08     0.1000000000E+03
         0.6440000000E+08     0.1000000000E+03
         0.6450000000E+08     0.1000000000E+03
         0.6450000000E+08     0.1000000000E+03
         0.6460000000E+08     0.1000000000E+03
         0.6470000000E+08     0.1000000000E+03
         0.6480000000E+08     0.1000000000E+03
         0.6490000000E+08     0.1000000000E+03
         0.6500000000E+08     0.1000000000E+03
         0.6510000000E+08     0.1000000000E+03
         0.6510000000E+08     0.1000000000E+03
         0.6520000000E+08     0.1000000000E+03
         0.6530000000E+08     0.1000000000E+03
         0.6540000000E+08     0.1000000000E+03
         0.6550000000E+08     0.1000000000E+03
         0.6560000000E+08     0.1000000000E+03
         0.6570000000E+08     0.1000000000E+03
         0.6580000000E+08     0.1000000000E+03
         0.6590000000E+08     0.1000000000E+03
         0.6600000000E+08     0.1000000000E+03
         0.6610000000E+08     0.1000000000E+03
         0.6610000000E+08     0.1000000000E+03
         0.6620000000E+08     0.1000000000E+03
         0.6630000000E+08     0.1000000000E+03
         0.6640000000E+08     0.1000000000E+03
         0.6650000000E+08     0.1000000000E+03
         0.6660000000E+08     0.1000000000E+03
         0.6670000000E+08     0.1000000000E+03
         0.6670000000E+08     0.1000000000E+03
         0.6680000000E+08     0.1000000000E+03
         0.6690000000E+08     0.1000000000E+03
         0.6700000000E+08     0.1000000000E+03
         0.6710000000E+08     0.1000000000E+03
         0.6720000000E+08     0.1000000000E+03
         0.6730000000E+08     0.1000000000E+03
         0.6730000000E+08     0.1000000000E+03
         0.6740000000E+08     0.1000000000E+03
         0.6750000000E+08     0.1000000000E+03
         0.6760000000E+08     0.1000000000E+03
         0.6770000000E+08     0.1000000000E+03
         0.6780000000E+08     0.1000000000E+03
         0.6790000000E+08     0.1000000000E+03
         0.6800000000E+08     0.1000000000E+03
         0.6810000000E+08     0.1000000000E+03
         0.6820000000E+08     0.1000000000E+03
         0.6830000000E+08     0.1000000000E+03
         0.6830000000E+08     0.1000000000E+03
         0.6840000000E+08     0.1000000000E+03
         0.6850000000E+08     0.1000000000E+03
         0.6860000000E+08     0.1000000000E+03
         0.6870000000E+08     0.1000000000E+03
         0.6880000000E+08     0.1000000000E+03
         0.6890000000E+08     0.1000000000E+03
         0.6890000000E+08     0.1000000000E+03
         0.6900000000E+08     0.1000000000E+03
         0.6910000000E+08     0.1000000000E+03
         0.6920000000E+08     0.1000000000E+03
         0.6930000000E+08     0.1000000000E+03
         0.6940000000E+08     0.1000000000E+03
         0.6950000000E+08     0.1000000000E+03
         0.6950000000E+08     0.1000000000E+03
         0.6960000000E+08     0.1000000000E+03
         0.6970000000E+08     0.1000000000E+03
         0.6980000000E+08     0.1000000000E+03
         0.6990000000E+08     0.1000000000E+03
         0.7000000000E+08     0.1000000000E+03
         0.7010000000E+08     0.1000000000E+03
         0.7020000000E+08     0.1000000000E+03
         0.7030000000E+08     0.1000000000E+03
         0.7040000000E+08     0.1000000000E+03
         0.7050000000E+08     0.1000000000E+03
         0.7050000000E+08     0.1000000000E+03
         0.7060000000E+08     0.1000000000E+03
         0.7070000000E+08     0.1000000000E+03
         0.7080000000E+08     0.1000000000E+03
         0.7090000000E+08     0.1000000000E+03
         0.7100000000E+08     0.1000000000E+03
         0.7110000000E+08     0.1000000000E+03
         0.7110000000E+08     0.1000000000E+03
         0.7120000000E+08     0.1000000000E+03
         0.7130000000E+08     0.1000000000E+03
         0.7140000000E+08     0.1000000000E+03
         0.7150000000E+08     0.1000000000E+03
         0.7160000000E+08     0.1000000000E+03
         0.7170000000E+08     0.1000000000E+03
         0.7170000000E+08     0.1000000000E+03
         0.7180000000E+08     0.1000000000E+03
         0.7190000000E+08     0.1000000000E+03
         0.7200000000E+08     0.1000000000E+03
         0.7210000000E+08     0.1000000000E+03
         0.7220000000E+08     0.1000000000E+03
         0.7230000000E+08     0.1000000000E+03
         0.7240000000E+08     0.1000000000E+03
         0.7250000000E+08     0.1000000000E+03
         0.7260000000E+08     0.1000000000E+03
         0.7270000000E+08     0.1000000000E+03
         0.7270000000E+08     0.1000000000E+03
         0.7280000000E+08     0.1000000000E+03
         0.7290000000E+08     0.1000000000E+03
         0.7300000000E+08     0.1000000000E+03
         0.7310000000E+08     0.1000000000E+03
         0.7320000000E+08     0.1000000000E+03
         0.7330000000E+08     0.1000000000E+03
         0.7330000000E+08     0.1000000000E+03
         0.7340000000E+08     0.1000000000E+03
         0.7350000000E+08     0.1000000000E+03
         0.7360000000E+08     0.1000000000E+03
         0.7370000000E+08     0.1000000000E+03
         0.7380000000E+08     0.1000000000E+03
         0.7390000000E+08     0.1000000000E+03
         0.7390000000E+08     0.1000000000E+03
         0.7400000000E+08     0.1000000000E+03
         0.7410000000E+08     0.1000000000E+03
         0.7420000000E+08     0.1000000000E+03
         0.7430000000E+08     0.1000000000E+03
         0.7440000000E+08     0.1000000000E+03
         0.7450000000E+08     0.1000000000E+03
         0.7460000000E+08     0.1000000000E+03
         0.7470000000E+08     0.1000000000E+03
         0.7480000000E+08     0.1000000000E+03
         0.7490000000E+08     0.1000000000E+03
         0.7490000000E+08     0.1000000000E+03
         0.7500000000E+08     0.1000000000E+03
         0.7510000000E+08     0.1000000000E+03
         0.7520000000E+08     0.1000000000E+03
         0.7530000000E+08     0.1000000000E+03
         0.7540000000E+08     0.1000000000E+03
         0.7550000000E+08     0.1000000000E+03
         0.7550000000E+08     0.1000000000E+03
         0.7560000000E+08     0.1000000000E+03
         0.7570000000E+08     0.1000000000E+03
         0.7580000000E+08     0.1000000000E+03
         0.7590000000E+08     0.1000000000E+03
         0.7600000000E+08     0.1000000000E+03
         0.7610000000E+08     0.1000000000E+03
         0.7610000000E+08     0.1000000000E+03
         0.7620000000E+08     0.1000000000E+03
         0.7630000000E+08     0.1000000000E+03
         0.7640000000E+08     0.1000000000E+03
         0.7650000000E+08     0.1000000000E+03
         0.7660000000E+08     0.1000000000E+03
         0.7670000000E+08     0.1000000000E+03
         0.7680000000E+08     0.1000000000E+03
         0.7690000000E+08     0.1000000000E+03
         0.7700000000E+08     0.1000000000E+03
         0.7710000000E+08     0.1000000000E+03
         0.7710000000E+08     0.1000000000E+03
         0.7720000000E+08     0.1000000000E+03
         0.7730000000E+08     0.1000000000E+03
         0.7740000000E+08     0.1000000000E+03
         0.7750000000E+08     0.1000000000E+03
         0.7760000000E+08     0.1000000000E+03
         0.7770000000E+08     0.1000000000E+03
         0.7770000000E+08     0.1000000000E+03
         0.7780000000E+08     0.1000000000E+03
         0.7790000000E+08     0.1000000000E+03
         0.7800000000E+08     0.1000000000E+03
         0.7810000000E+08     0.1000000000E+03
         0.7820000000E+08     0.1000000000E+03
         0.7830000000E+08     0.1000000000E+03
         0.7830000000E+08     0.1000000000E+03
         0.7840000000E+08     0.1000000000E+03
         0.7850000000E+08     0.1000000000E+03
         0.7860000000E+08     0.1000000000E+03
         0.7870000000E+08     0.1000000000E+03
         0.7880000000E+08     0.1000000000E+03
         0.7890000000E+08     0.1000000000E+03
         0.7900000000E+08     0.1000000000E+03
         0.7910000000E+08     0.1000000000E+03
         0.7920000000E+08     0.1000000000E+03
         0.7930000000E+08     0.1000000000E+03
         0.7930000000E+08     0.1000000000E+03
         0.7940000000E+08     0.1000000000E+03
         0.7950000000E+08     0.1000000000E+03
         0.7960000000E+08     0.1000000000E+03
         0.7970000000E+08     0.1000000000E+03
         0.7980000000E+08     0.1000000000E+03
         0.7990000000E+08     0.1000000000E+03
         0.7990000000E+08     0.1000000000E+03
         0.8000000000E+08     0.1000000000E+03
         0.8010000000E+08     0.1000000000E+03
         0.8020000000E+08     0.1000000000E+03
         0.8030000000E+08     0.1000000000E+03
         0.8040000000E+08     0.1000000000E+03
         0.8050000000E+08     0.1000000000E+03
         0.8050000000E+08     0.1000000000E+03
         0.8060000000E+08     0.1000000000E+03
         0.8070000000E+08     0.1000000000E+03
         0.8080000000E+08     0.1000000000E+03
         0.8090000000E+08     0.1000000000E+03
         0.8100000000E+08     0.1000000000E+03
         0.8110000000E+08     0.1000000000E+03
         0.8120000000E+08     0.1000000000E+03
         0.8130000000E+08     0.1000000000E+03
         0.8140000000E+08     0.1000000000E+03
         0.8150000000E+08     0.1000000000E+03
         0.8150000000E+08     0.1000000000E+03
         0.8160000000E+08     0.1000000000E+03
         0.8170000000E+08     0.1000000000E+03
         0.8180000000E+08     0.1000000000E+03
         0.8190000000E+08     0.1000000000E+03
         0.8200000000E+08     0.1000000000E+03
         0.8210000000E+08     0.1000000000E+03
         0.8210000000E+08     0.1000000000E+03
         0.8220000000E+08     0.1000000000E+03
         0.8230000000E+08     0.1000000000E+03
         0.8240000000E+08     0.1000000000E+03
         0.8250000000E+08     0.1000000000E+03
         0.8260000000E+08     0.1000000000E+03
         0.8270000000E+08     0.1000000000E+03
         0.8270000000E+08     0.1000000000E+03
         0.8280000000E+08     0.1000000000E+03
         0.8290000000E+08     0.1000000000E+03
         0.8300000000E+08     0.1000000000E+03
         0.8310000000E+08     0.1000000000E+03
         0.8320000000E+08     0.1000000000E+03
         0.8330000000E+08     0.1000000000E+03
         0.8340000000E+08     0.1000000000E+03
         0.8350000000E+08     0.1000000000E+03
         0.8360000000E+08     0.1000000000E+03
         0.8370000000E+08     0.1000000000E+03
         0.8370000000E+08     0.1000000000E+03
         0.8380000000E+08     0.1000000000E+03
         0.8390000000E+08     0.1000000000E+03
         0.8400000000E+08     0.1000000000E+03
         0.8410000000E+08     0.1000000000E+03
         0.8420000000E+08     0.1000000000E+03
         0.8430000000E+08     0.1000000000E+03
         0.8430000000E+08     0.1000000000E+03
         0.8440000000E+08     0.1000000000E+03
         0.8450000000E+08     0.1000000000E+03
         0.8460000000E+08     0.1000000000E+03
         0.8470000000E+08     0.1000000000E+03
         0.8480000000E+08     0.1000000000E+03
         0.8490000000E+08     0.1000000000E+03
         0.8490000000E+08     0.1000000000E+03
         0.8500000000E+08     0.1000000000E+03
         0.8510000000E+08     0.1000000000E+03
         0.8520000000E+08     0.1000000000E+03
         0.8530000000E+08     0.1000000000E+03
         0.8540000000E+08     0.1000000000E+03
         0.8550000000E+08     0.1000000000E+03
         0.8560000000E+08     0.1000000000E+03
         0.8570000000E+08     0.1000000000E+03
         0.8580000000E+08     0.1000000000E+03
         0.8590000000E+08     0.1000000000E+03
         0.8590000000E+08     0.1000000000E+03
         0.8600000000E+08     0.1000000000E+03
         0.8610000000E+08     0.1000000000E+03
         0.8620000000E+08     0.1000000000E+03
         0.8630000000E+08     0.1000000000E+03
         0.8640000000E+08     0.1000000000E+03
         0.8650000000E+08     0.1000000000E+03
         0.8650000000E+08     0.1000000000E+03
         0.8660000000E+08     0.1000000000E+03
         0.8670000000E+08     0.1000000000E+03
         0.8680000000E+08     0.1000000000E+03
         0.8690000000E+08     0.1000000000E+03
         0.8700000000E+08     0.1000000000E+03
         0.8710000000E+08     0.1000000000E+03
         0.8710000000E+08     0.1000000000E+03
         0.8720000000E+08     0.1000000000E+03
         0.8730000000E+08     0.1000000000E+03
         0.8740000000E+08     0.1000000000E+03
         0.8750000000E+08     0.1000000000E+03
         0.8760000000E+08     0.1000000000E+03
         0.8770000000E+08     0.1000000000E+03
         0.8780000000E+08     0.1000000000E+03
         0.8790000000E+08     0.1000000000E+03
         0.8800000000E+08     0.1000000000E+03
         0.8810000000E+08     0.1000000000E+03
         0.8810000000E+08     0.1000000000E+03
         0.8820000000E+08     0.1000000000E+03
         0.8830000000E+08     0.1000000000E+03
         0.8840000000E+08     0.1000000000E+03
         0.8850000000E+08     0.1000000000E+03
         0.8860000000E+08     0.1000000000E+03
         0.8870000000E+08     0.1000000000E+03
         0.8870000000E+08     0.1000000000E+03
         0.8880000000E+08     0.1000000000E+03
         0.8890000000E+08     0.1000000000E+03
         0.8900000000E+08     0.1000000000E+03
         0.8910000000E+08     0.1000000000E+03
         0.8920000000E+08     0.1000000000E+03
         0.8930000000E+08     0.1000000000E+03
         0.8930000000E+08     0.1000000000E+03
         0.8940000000E+08     0.1000000000E+03
         0.8950000000E+08     0.1000000000E+03
         0.8960000000E+08     0.1000000000E+03
         0.8970000000E+08     0.1000000000E+03
         0.8980000000E+08     0.1000000000E+03
         0.8990000000E+08     0.1000000000E+03
         0.9000000000E+08     0.1000000000E+03
         0.9010000000E+08     0.1000000000E+03
         0.9020000000E+08     0.1000000000E+03
         0.9030000000E+08     0.1000000000E+03
         0.9030000000E+08     0.1000000000E+03
         0.9040000000E+08     0.1000000000E+03
         0.9050000000E+08     0.1000000000E+03
         0.9060000000E+08     0.1000000000E+03
         0.9070000000E+08     0.1000000000E+03
         0.9080000000E+08     0.1000000000E+03
         0.9090000000E+08     0.1000000000E+03
         0.9090000000E+08     0.1000000000E+03
         0.9100000000E+08     0.1000000000E+03
         0.9110000000E+08     0.1000000000E+03
         0.9120000000E+08     0.1000000000E+03
         0.9130000000E+08     0.1000000000E+03
         0.9140000000E+08     0.1000000000E+03
         0.9150000000E+08     0.1000000000E+03
         0.9150000000E+08     0.1000000000E+03
         0.9160000000E+08     0.1000000000E+03
         0.9170000000E+08     0.1000000000E+03
         0.9180000000E+08     0.1000000000E+03
         0.9190000000E+08     0.1000000000E+03
         0.9200000000E+08     0.1000000000E+03
         0.9210000000E+08     0.1000000000E+03
         0.9220000000E+08     0.1000000000E+03
         0.9230000000E+08     0.1000000000E+03
         0.9240000000E+08     0.1000000000E+03
         0.9250000000E+08     0.1000000000E+03
         0.9250000000E+08     0.1000000000E+03
         0.9260000000E+08     0.1000000000E+03
         0.9270000000E+08     0.1000000000E+03
         0.9280000000E+08     0.1000000000E+03
         0.9290000000E+08     0.1000000000E+03
         0.9300000000E+08     0.1000000000E+03
         0.9310000000E+08     0.1000000000E+03
         0.9310000000E+08     0.1000000000E+03
         0.9320000000E+08     0.1000000000E+03
         0.9330000000E+08     0.1000000000E+03
         0.9340000000E+08     0.1000000000E+03
         0.9350000000E+08     0.1000000000E+03
         0.9360000000E+08     0.1000000000E+03
         0.9370000000E+08     0.1000000000E+03
         0.9370000000E+08     0.1000000000E+03
         0.9380000000E+08     0.1000000000E+03
         0.9390000000E+08     0.1000000000E+03
         0.9400000000E+08     0.1000000000E+03
         0.9410000000E+08     0.1000000000E+03
         0.9420000000E+08     0.1000000000E+03
         0.9430000000E+08     0.1000000000E+03
         0.9440000000E+08     0.1000000000E+03
         0.9450000000E+08     0.1000000000E+03
         0.9460000000E+08     0.1000000000E+03
         0.9470000000E+08     0.1000000000E+03
         0.9470000000E+08     0.1000000000E+03
         0.9480000000E+08     0.1000000000E+03
         0.9490000000E+08     0.1000000000E+03
         0.9500000000E+08     0.1000000000E+03
         0.9510000000E+08     0.1000000000E+03
         0.9520000000E+08     0.1000000000E+03
         0.9530000000E+08     0.1000000000E+03
         0.9530000000E+08     0.1000000000E+03
         0.9540000000E+08     0.1000000000E+03
         0.9550000000E+08     0.1000000000E+03
         0.9560000000E+08     0.1000000000E+03
         0.9570000000E+08     0.1000000000E+03
         0.9580000000E+08     0.1000000000E+03
         0.9590000000E+08     0.1000000000E+03
         0.9590000000E+08     0.1000000000E+03
         0.9600000000E+08     0.1000000000E+03
         0.9610000000E+08     0.1000000000E+03
         0.9620000000E+08     0.1000000000E+03
         0.9630000000E+08     0.1000000000E+03
         0.9640000000E+08     0.1000000000E+03
         0.9650000000E+08     0.1000000000E+03
         0.9660000000E+08     0.1000000000E+03
         0.9670000000E+08     0.1000000000E+03
         0.9680000000E+08     0.1000000000E+03
         0.9690000000E+08     0.1000000000E+03
         0.9690000000E+08     0.1000000000E+03
         0.9700000000E+08     0.1000000000E+03
         0.9710000000E+08     0.1000000000E+03
         0.9720000000E+08     0.1000000000E+03
         0.9730000000E+08     0.1000000000E+03
         0.9740000000E+08     0.1000000000E+03
         0.9750000000E+08     0.1000000000E+03
         0.9750000000E+08     0.1000000000E+03
         0.9760000000E+08     0.1000000000E+03
         0.9770000000E+08     0.1000000000E+03
         0.9780000000E+08     0.1000000000E+03
         0.9790000000E+08     0.1000000000E+03
         0.9800000000E+08     0.1000000000E+03
         0.9810000000E+08     0.1000000000E+03
         0.9810000000E+08     0.1000000000E+03
         0.9820000000E+08     0.1000000000E+03
         0.9830000000E+08     0.1000000000E+03
         0.9840000000E+08     0.1000000000E+03
         0.9850000000E+08     0.1000000000E+03
         0.9860000000E+08     0.1000000000E+03
         0.9870000000E+08     0.1000000000E+03
         0.9880000000E+08     0.1000000000E+03
         0.9890000000E+08     0.1000000000E+03
         0.9900000000E+08     0.1000000000E+03
         0.9910000000E+08     0.1000000000E+03
         0.9910000000E+08     0.1000000000E+03
         0.9920000000E+08     0.1000000000E+03
         0.9930000000E+08     0.1000000000E+03
         0.9940000000E+08     0.1000000000E+03
         0.9950000000E+08     0.1000000000E+03
         0.9960000000E+08     0.1000000000E+03
         0.9970000000E+08     0.1000000000E+03
         0.9970000000E+08     0.1000000000E+03
         0.9980000000E+08     0.1000000000E+03
         0.9990000000E+08     0.1000000000E+03
         0.1000000000E+09     0.1000000000E+03
         0.1001000000E+09     0.1000000000E+03
         0.1002000000E+09     0.1000000000E+03
         0.1003000000E+09     0.1000000000E+03
         0.1003000000E+09     0.1000000000E+03
         0.1004000000E+09     0.1000000000E+03
         0.1005000000E+09     0.1000000000E+03
         0.1006000000E+09     0.1000000000E+03
         0.1007000000E+09     0.1000000000E+03
         0.1008000000E+09     0.1000000000E+03
         0.1009000000E+09     0.1000000000E+03
         0.1010000000E+09     0.1000000000E+03
         0.1011000000E+09     0.1000000000E+03
         0.1012000000E+09     0.1000000000E+03
         0.1013000000E+09     0.1000000000E+03
         0.1013000000E+09     0.1000000000E+03
         0.1014000000E+09     0.1000000000E+03
         0.1015000000E+09     0.1000000000E+03
         0.1016000000E+09     0.1000000000E+03
         0.1017000000E+09     0.1000000000E+03
         0.1018000000E+09     0.1000000000E+03
         0.1019000000E+09     0.1000000000E+03
         0.1019000000E+09     0.1000000000E+03
         0.1020000000E+09     0.1000000000E+03
         0.1021000000E+09     0.1000000000E+03
         0.1022000000E+09     0.1000000000E+03
         0.1023000000E+09     0.1000000000E+03
         0.1024000000E+09     0.1000000000E+03
         0.1025000000E+09     0.1000000000E+03
         0.1025000000E+09     0.1000000000E+03
         0.1026000000E+09     0.1000000000E+03
         0.1027000000E+09     0.1000000000E+03
         0.1028000000E+09     0.1000000000E+03
         0.1029000000E+09     0.1000000000E+03
         0.1030000000E+09     0.1000000000E+03
         0.1031000000E+09     0.1000000000E+03
         0.1032000000E+09     0.1000000000E+03
         0.1033000000E+09     0.1000000000E+03
         0.1034000000E+09     0.1000000000E+03
         0.1035000000E+09     0.1000000000E+03
         0.1035000000E+09     0.1000000000E+03
         0.1036000000E+09     0.1000000000E+03
         0.1037000000E+09     0.1000000000E+03
         0.1038000000E+09     0.1000000000E+03
         0.1039000000E+09     0.1000000000E+03
         0.1040000000E+09     0.1000000000E+03
         0.1041000000E+09     0.1000000000E+03
         0.1041000000E+09     0.1000000000E+03
         0.1042000000E+09     0.1000000000E+03
         0.1043000000E+09     0.1000000000E+03
         0.1044000000E+09     0.1000000000E+03
         0.1045000000E+09     0.1000000000E+03
         0.1046000000E+09     0.1000000000E+03
         0.1047000000E+09     0.1000000000E+03
         0.1047000000E+09     0.1000000000E+03
         0.1048000000E+09     0.1000000000E+03
         0.1049000000E+09     0.1000000000E+03
         0.1050000000E+09     0.1000000000E+03
         0.1051000000E+09     0.1000000000E+03
         0.1052000000E+09     0.1000000000E+03
         0.1053000000E+09     0.1000000000E+03
         0.1054000000E+09     0.1000000000E+03
         0.1055000000E+09     0.1000000000E+03
         0.1056000000E+09     0.1000000000E+03
         0.1057000000E+09     0.1000000000E+03
         0.1057000000E+09     0.1000000000E+03
         0.1058000000E+09     0.1000000000E+03
         0.1059000000E+09     0.1000000000E+03
         0.1060000000E+09     0.1000000000E+03
         0.1061000000E+09     0.1000000000E+03
         0.1062000000E+09     0.1000000000E+03
         0.1063000000E+09     0.1000000000E+03
         0.1063000000E+09     0.1000000000E+03
         0.1064000000E+09     0.1000000000E+03
         0.1065000000E+09     0.1000000000E+03
         0.1066000000E+09     0.1000000000E+03
         0.1067000000E+09     0.1000000000E+03
         0.1068000000E+09     0.1000000000E+03
         0.1069000000E+09     0.1000000000E+03
         0.1069000000E+09     0.1000000000E+03
         0.1070000000E+09     0.1000000000E+03
         0.1071000000E+09     0.1000000000E+03
         0.1072000000E+09     0.1000000000E+03
         0.1073000000E+09     0.1000000000E+03
         0.1074000000E+09     0.1000000000E+03
         0.1075000000E+09     0.1000000000E+03
         0.1076000000E+09     0.1000000000E+03
         0.1077000000E+09     0.1000000000E+03
         0.1078000000E+09     0.1000000000E+03
         0.1079000000E+09     0.1000000000E+03
         0.1079000000E+09     0.1000000000E+03
         0.1080000000E+09     0.1000000000E+03
         0.1081000000E+09     0.1000000000E+03
         0.1082000000E+09     0.1000000000E+03
         0.1083000000E+09     0.1000000000E+03
         0.1084000000E+09     0.1000000000E+03
         0.1085000000E+09     0.1000000000E+03
         0.1085000000E+09     0.1000000000E+03
         0.1086000000E+09     0.1000000000E+03
         0.1087000000E+09     0.1000000000E+03
         0.1088000000E+09     0.1000000000E+03
         0.1089000000E+09     0.1000000000E+03
         0.1090000000E+09     0.1000000000E+03
         0.1091000000E+09     0.1000000000E+03
         0.1091000000E+09     0.1000000000E+03
         0.1092000000E+09     0.1000000000E+03
         0.1093000000E+09     0.1000000000E+03
         0.1094000000E+09     0.1000000000E+03
         0.1095000000E+09     0.1000000000E+03
         0.1096000000E+09     0.1000000000E+03
         0.1097000000E+09     0.1000000000E+03
         0.1098000000E+09     0.1000000000E+03
         0.1099000000E+09     0.1000000000E+03
         0.1100000000E+09     0.1000000000E+03
         0.1101000000E+09     0.1000000000E+03
         0.1101000000E+09     0.1000000000E+03
         0.1102000000E+09     0.1000000000E+03
         0.1103000000E+09     0.1000000000E+03
         0.1104000000E+09     0.1000000000E+03
         0.1105000000E+09     0.1000000000E+03
         0.1106000000E+09     0.1000000000E+03
         0.1107000000E+09     0.1000000000E+03
         0.1107000000E+09     0.1000000000E+03
         0.1108000000E+09     0.1000000000E+03
         0.1109000000E+09     0.1000000000E+03
         0.1110000000E+09     0.1000000000E+03
         0.1111000000E+09     0.1000000000E+03
         0.1112000000E+09     0.1000000000E+03
         0.1113000000E+09     0.1000000000E+03
         0.1113000000E+09     0.1000000000E+03
         0.1114000000E+09     0.1000000000E+03
         0.1115000000E+09     0.1000000000E+03
         0.1116000000E+09     0.1000000000E+03
         0.1117000000E+09     0.1000000000E+03
         0.1118000000E+09     0.1000000000E+03
         0.1119000000E+09     0.1000000000E+03
         0.1120000000E+09     0.1000000000E+03
         0.1121000000E+09     0.1000000000E+03
         0.1122000000E+09     0.1000000000E+03
         0.1123000000E+09     0.1000000000E+03
         0.1123000000E+09     0.1000000000E+03
         0.1124000000E+09     0.1000000000E+03
         0.1125000000E+09     0.1000000000E+03
         0.1126000000E+09     0.1000000000E+03
         0.1127000000E+09     0.1000000000E+03
         0.1128000000E+09     0.1000000000E+03
         0.1129000000E+09     0.1000000000E+03
         0.1129000000E+09     0.1000000000E+03
         0.1130000000E+09     0.1000000000E+03
         0.1131000000E+09     0.1000000000E+03
         0.1132000000E+09     0.1000000000E+03
         0.1133000000E+09     0.1000000000E+03
         0.1134000000E+09     0.1000000000E+03
         0.1135000000E+09     0.1000000000E+03
         0.1135000000E+09     0.1000000000E+03
         0.1136000000E+09     0.1000000000E+03
         0.1137000000E+09     0.1000000000E+03
         0.1138000000E+09     0.1000000000E+03
         0.1139000000E+09     0.1000000000E+03
         0.1140000000E+09     0.1000000000E+03
         0.1141000000E+09     0.1000000000E+03
         0.1142000000E+09     0.1000000000E+03
         0.1143000000E+09     0.1000000000E+03
         0.1144000000E+09     0.1000000000E+03
         0.1145000000E+09     0.1000000000E+03
         0.1145000000E+09     0.1000000000E+03
         0.1146000000E+09     0.1000000000E+03
         0.1147000000E+09     0.1000000000E+03
         0.1148000000E+09     0.1000000000E+03
         0.1149000000E+09     0.1000000000E+03
         0.1150000000E+09     0.1000000000E+03
         0.1151000000E+09     0.1000000000E+03
         0.1151000000E+09     0.1000000000E+03
         0.1152000000E+09     0.1000000000E+03
         0.1153000000E+09     0.1000000000E+03
         0.1154000000E+09     0.1000000000E+03
         0.1155000000E+09     0.1000000000E+03
         0.1156000000E+09     0.1000000000E+03
         0.1157000000E+09     0.1000000000E+03
         0.1157000000E+09     0.1000000000E+03
         0.1158000000E+09     0.1000000000E+03
         0.1159000000E+09     0.1000000000E+03
         0.1160000000E+09     0.1000000000E+03
         0.1161000000E+09     0.1000000000E+03
         0.1162000000E+09     0.1000000000E+03
         0.1163000000E+09     0.1000000000E+03
         0.1164000000E+09     0.1000000000E+03
         0.1165000000E+09     0.1000000000E+03
         0.1166000000E+09     0.1000000000E+03
         0.1167000000E+09     0.1000000000E+03
         0.1167000000E+09     0.1000000000E+03
         0.1168000000E+09     0.1000000000E+03
         0.1169000000E+09     0.1000000000E+03
         0.1170000000E+09     0.1000000000E+03
         0.1171000000E+09     0.1000000000E+03
         0.1172000000E+09     0.1000000000E+03
         0.1173000000E+09     0.1000000000E+03
         0.1173000000E+09     0.1000000000E+03
         0.1174000000E+09     0.1000000000E+03
         0.1175000000E+09     0.1000000000E+03
         0.1176000000E+09     0.1000000000E+03
         0.1177000000E+09     0.1000000000E+03
         0.1178000000E+09     0.1000000000E+03
         0.1179000000E+09     0.1000000000E+03
         0.1179000000E+09     0.1000000000E+03
         0.1180000000E+09     0.1000000000E+03
         0.1181000000E+09     0.1000000000E+03
         0.1182000000E+09     0.1000000000E+03
         0.1183000000E+09     0.1000000000E+03
         0.1184000000E+09     0.1000000000E+03
         0.1185000000E+09     0.1000000000E+03
         0.1186000000E+09     0.1000000000E+03
         0.1187000000E+09     0.1000000000E+03
         0.1188000000E+09     0.1000000000E+03
         0.1189000000E+09     0.1000000000E+03
         0.1189000000E+09     0.1000000000E+03
         0.1190000000E+09     0.1000000000E+03
         0.1191000000E+09     0.1000000000E+03
         0.1192000000E+09     0.1000000000E+03
         0.1193000000E+09     0.1000000000E+03
         0.1194000000E+09     0.1000000000E+03
         0.1195000000E+09     0.1000000000E+03
         0.1195000000E+09     0.1000000000E+03
         0.1196000000E+09     0.1000000000E+03
         0.1197000000E+09     0.1000000000E+03
         0.1198000000E+09     0.1000000000E+03
         0.1199000000E+09     0.1000000000E+03
         0.1200000000E+09     0.1000000000E+03
         0.1201000000E+09     0.1000000000E+03
         0.1201000000E+09     0.1000000000E+03
         0.1202000000E+09     0.1000000000E+03
         0.1203000000E+09     0.1000000000E+03
         0.1204000000E+09     0.1000000000E+03
         0.1205000000E+09     0.1000000000E+03
         0.1206000000E+09     0.1000000000E+03
         0.1207000000E+09     0.1000000000E+03
         0.1208000000E+09     0.1000000000E+03
         0.1209000000E+09     0.1000000000E+03
         0.1210000000E+09     0.1000000000E+03
         0.1211000000E+09     0.1000000000E+03
         0.1211000000E+09     0.1000000000E+03
         0.1212000000E+09     0.1000000000E+03
         0.1213000000E+09     0.1000000000E+03
         0.1214000000E+09     0.1000000000E+03
         0.1215000000E+09     0.1000000000E+03
         0.1216000000E+09     0.1000000000E+03
         0.1217000000E+09     0.1000000000E+03
         0.1217000000E+09     0.1000000000E+03
         0.1218000000E+09     0.1000000000E+03
         0.1219000000E+09     0.1000000000E+03
         0.1220000000E+09     0.1000000000E+03
         0.1221000000E+09     0.1000000000E+03
         0.1222000000E+09     0.1000000000E+03
         0.1223000000E+09     0.1000000000E+03
         0.1223000000E+09     0.1000000000E+03
         0.1224000000E+09     0.1000000000E+03
         0.1225000000E+09     0.1000000000E+03
         0.1226000000E+09     0.1000000000E+03
         0.1227000000E+09     0.1000000000E+03
         0.1228000000E+09     0.1000000000E+03
         0.1229000000E+09     0.1000000000E+03
         0.1230000000E+09     0.1000000000E+03
         0.1231000000E+09     0.1000000000E+03
         0.1232000000E+09     0.1000000000E+03
         0.1233000000E+09     0.1000000000E+03
         0.1233000000E+09     0.1000000000E+03
         0.1234000000E+09     0.1000000000E+03
         0.1235000000E+09     0.1000000000E+03
         0.1236000000E+09     0.1000000000E+03
         0.1237000000E+09     0.1000000000E+03
         0.1238000000E+09     0.1000000000E+03
         0.1239000000E+09     0.1000000000E+03
         0.1239000000E+09     0.1000000000E+03
         0.1240000000E+09     0.1000000000E+03
         0.1241000000E+09     0.1000000000E+03
         0.1242000000E+09     0.1000000000E+03
         0.1243000000E+09     0.1000000000E+03
         0.1244000000E+09     0.1000000000E+03
         0.1245000000E+09     0.1000000000E+03
         0.1245000000E+09     0.1000000000E+03
         0.1246000000E+09     0.1000000000E+03
         0.1247000000E+09     0.1000000000E+03
         0.1248000000E+09     0.1000000000E+03
         0.1249000000E+09     0.1000000000E+03
         0.1250000000E+09     0.1000000000E+03
         0.1251000000E+09     0.1000000000E+03
         0.1252000000E+09     0.1000000000E+03
         0.1253000000E+09     0.1000000000E+03
         0.1254000000E+09     0.1000000000E+03
         0.1255000000E+09     0.1000000000E+03
         0.1255000000E+09     0.1000000000E+03
         0.1256000000E+09     0.1000000000E+03
         0.1257000000E+09     0.1000000000E+03
         0.1258000000E+09     0.1000000000E+03
         0.1259000000E+09     0.1000000000E+03
         0.1260000000E+09     0.1000000000E+03



            AREAL INFILTRATION RATE
 READING ON UNIT   19 WITH FORMAT: (10F4.0)            

            1           2           3           4           5           6           7           8           9          10
 ........................................................................................................................
   1   1.0000E-10  2.0000E-10   0.000       0.000       0.000       0.000       0.000       0.000       0.000       0.000    
   2   2.0000E-10  1.0000E-10  2.0000E-10   0.000       0.000      8.0000E-10  8.0000E-10  5.0000E-10   0.000       0.000    
   3    0.000      5.0000E-10  1.0000E-10  1.0000E-10  8.0000E-10  8.0000E-10  5.0000E-10  5.0000E-10   0.000       0.000    
   4   8.0000E-10  5.0000E-10  1.0000E-10  1.0000E-10  1.0000E-10  1.0000E-10  1.0000E-10  1.0000E-10  2.0000E-10   0.000    
   5   8.0000E-10  5.0000E-10  1.0000E-10  1.0000E-10  1.0000E-10  1.0000E-10  1.0000E-10  1.0000E-10  1.0000E-10  1.0000E-10
   6   8.0000E-10  5.0000E-10  5.0000E-10  2.0000E-10  2.0000E-10  1.0000E-10  1.0000E-10  1.0000E-10  1.0000E-10  5.0000E-10
   7   8.0000E-10  5.0000E-10  5.0000E-10  2.0000E-10  2.0000E-10  1.0000E-10  1.0000E-10  2.0000E-10  2.0000E-10   0.000    
   8    0.000      5.0000E-10  5.0000E-10  2.0000E-10  2.0000E-10  1.0000E-10  1.0000E-10  2.0000E-10  5.0000E-10   0.000    
   9    0.000      5.0000E-10  5.0000E-10  2.0000E-10  2.0000E-10  1.0000E-10  1.0000E-10  2.0000E-10  5.0000E-10   0.000    
  10    0.000      5.0000E-10  5.0000E-10  2.0000E-10  2.0000E-10  1.0000E-10  1.0000E-10  2.0000E-10  5.0000E-10  8.0000E-10
  11    0.000      1.0000E-10  1.0000E-10  1.0000E-10  1.0000E-10  1.0000E-10  1.0000E-10  2.0000E-10  5.0000E-10   0.000    
  12   1.0000E-10  1.0000E-10  1.0000E-10  1.0000E-10  1.0000E-10  1.0000E-10  1.0000E-10  1.0000E-10  2.0000E-10   0.000    
  13   1.0000E-10  1.0000E-10  2.0000E-10  2.0000E-10  2.0000E-10  2.0000E-10  2.0000E-10  1.0000E-10  1.0000E-10   0.000    
  14    0.000      2.0000E-10  5.0000E-10  5.0000E-10  5.0000E-10  5.0000E-10  5.0000E-10  2.0000E-10  1.0000E-10   0.000    
  15    0.000       0.000      8.0000E-10  8.0000E-10  8.0000E-10  8.0000E-10   0.000       0.000       0.000       0.000    

                  ET RATE =  1.000000E-08

      ET EXTINCTION DEPTH =  0.500000    

 EXTINCTION WATER CONTENT =  0.200000    

EXTINCTION WATER CONTENT FOR CELL AT ROW     1, COLUMN     1 IS LESS THAN RESIDUAL WATER CONTENT-- SETTING EXTINCTION WATER CONTENT EQUAL TO RESIDUAL WATER CONTENT

EXTINCTION WATER CONTENT FOR CELL AT ROW     1, COLUMN     2 IS LESS THAN RESIDUAL WATER CONTENT-- SETTING EXTINCTION WATER CONTENT EQUAL TO RESIDUAL WATER CONTENT

EXTINCTION WATER CONTENT FOR CELL AT ROW     2, COLUMN     1 IS LESS THAN RESIDUAL WATER CONTENT-- SETTING EXTINCTION WATER CONTENT EQUAL TO RESIDUAL WATER CONTENT

EXTINCTION WATER CONTENT FOR CELL AT ROW     2, COLUMN     2 IS LESS THAN RESIDUAL WATER CONTENT-- SETTING EXTINCTION WATER CONTENT EQUAL TO RESIDUAL WATER CONTENT

EXTINCTION WATER CONTENT FOR CELL AT ROW     2, COLUMN     3 IS LESS THAN RESIDUAL WATER CONTENT-- SETTING EXTINCTION WATER CONTENT EQUAL TO RESIDUAL WATER CONTENT

EXTINCTION WATER CONTENT FOR CELL AT ROW     2, COLUMN     6 IS LESS THAN RESIDUAL WATER CONTENT-- SETTING EXTINCTION WATER CONTENT EQUAL TO RESIDUAL WATER CONTENT

EXTINCTION WATER CONTENT FOR CELL AT ROW     2, COLUMN     7 IS LESS THAN RESIDUAL WATER CONTENT-- SETTING EXTINCTION WATER CONTENT EQUAL TO RESIDUAL WATER CONTENT

EXTINCTION WATER CONTENT FOR CELL AT ROW     2, COLUMN     8 IS LESS THAN RESIDUAL WATER CONTENT-- SETTING EXTINCTION WATER CONTENT EQUAL TO RESIDUAL WATER CONTENT

EXTINCTION WATER CONTENT FOR CELL AT ROW     3, COLUMN     2 IS LESS THAN RESIDUAL WATER CONTENT-- SETTING EXTINCTION WATER CONTENT EQUAL TO RESIDUAL WATER CONTENT

EXTINCTION WATER CONTENT FOR CELL AT ROW     3, COLUMN     3 IS LESS THAN RESIDUAL WATER CONTENT-- SETTING EXTINCTION WATER CONTENT EQUAL TO RESIDUAL WATER CONTENT

EXTINCTION WATER CONTENT FOR CELL AT ROW     3, COLUMN     4 IS LESS THAN RESIDUAL WATER CONTENT-- SETTING EXTINCTION WATER CONTENT EQUAL TO RESIDUAL WATER CONTENT

EXTINCTION WATER CONTENT FOR CELL AT ROW     3, COLUMN     5 IS LESS THAN RESIDUAL WATER CONTENT-- SETTING EXTINCTION WATER CONTENT EQUAL TO RESIDUAL WATER CONTENT

EXTINCTION WATER CONTENT FOR CELL AT ROW     3, COLUMN     6 IS LESS THAN RESIDUAL WATER CONTENT-- SETTING EXTINCTION WATER CONTENT EQUAL TO RESIDUAL WATER CONTENT

EXTINCTION WATER CONTENT FOR CELL AT ROW     3, COLUMN     7 IS LESS THAN RESIDUAL WATER CONTENT-- SETTING EXTINCTION WATER CONTENT EQUAL TO RESIDUAL WATER CONTENT

EXTINCTION WATER CONTENT FOR CELL AT ROW     3, COLUMN     8 IS LESS THAN RESIDUAL WATER CONTENT-- SETTING EXTINCTION WATER CONTENT EQUAL TO RESIDUAL WATER CONTENT

EXTINCTION WATER CONTENT FOR CELL AT ROW     4, COLUMN     1 IS LESS THAN RESIDUAL WATER CONTENT-- SETTING EXTINCTION WATER CONTENT EQUAL TO RESIDUAL WATER CONTENT

EXTINCTION WATER CONTENT FOR CELL AT ROW     4, COLUMN     2 IS LESS THAN RESIDUAL WATER CONTENT-- SETTING EXTINCTION WATER CONTENT EQUAL TO RESIDUAL WATER CONTENT

EXTINCTION WATER CONTENT FOR CELL AT ROW     4, COLUMN     3 IS LESS THAN RESIDUAL WATER CONTENT-- SETTING EXTINCTION WATER CONTENT EQUAL TO RESIDUAL WATER CONTENT

EXTINCTION WATER CONTENT FOR CELL AT ROW     4, COLUMN     4 IS LESS THAN RESIDUAL WATER CONTENT-- SETTING EXTINCTION WATER CONTENT EQUAL TO RESIDUAL WATER CONTENT

EXTINCTION WATER CONTENT FOR CELL AT ROW     4, COLUMN     5 IS LESS THAN RESIDUAL WATER CONTENT-- SETTING EXTINCTION WATER CONTENT EQUAL TO RESIDUAL WATER CONTENT

EXTINCTION WATER CONTENT FOR CELL AT ROW     4, COLUMN     6 IS LESS THAN RESIDUAL WATER CONTENT-- SETTING EXTINCTION WATER CONTENT EQUAL TO RESIDUAL WATER CONTENT

EXTINCTION WATER CONTENT FOR CELL AT ROW     4, COLUMN     7 IS LESS THAN RESIDUAL WATER CONTENT-- SETTING EXTINCTION WATER CONTENT EQUAL TO RESIDUAL WATER CONTENT

EXTINCTION WATER CONTENT FOR CELL AT ROW     4, COLUMN     8 IS LESS THAN RESIDUAL WATER CONTENT-- SETTING EXTINCTION WATER CONTENT EQUAL TO RESIDUAL WATER CONTENT

EXTINCTION WATER CONTENT FOR CELL AT ROW     4, COLUMN     9 IS LESS THAN RESIDUAL WATER CONTENT-- SETTING EXTINCTION WATER CONTENT EQUAL TO RESIDUAL WATER CONTENT

EXTINCTION WATER CONTENT FOR CELL AT ROW     5, COLUMN     1 IS LESS THAN RESIDUAL WATER CONTENT-- SETTING EXTINCTION WATER CONTENT EQUAL TO RESIDUAL WATER CONTENT

EXTINCTION WATER CONTENT FOR CELL AT ROW     5, COLUMN     2 IS LESS THAN RESIDUAL WATER CONTENT-- SETTING EXTINCTION WATER CONTENT EQUAL TO RESIDUAL WATER CONTENT

EXTINCTION WATER CONTENT FOR CELL AT ROW     5, COLUMN     3 IS LESS THAN RESIDUAL WATER CONTENT-- SETTING EXTINCTION WATER CONTENT EQUAL TO RESIDUAL WATER CONTENT

EXTINCTION WATER CONTENT FOR CELL AT ROW     5, COLUMN     4 IS LESS THAN RESIDUAL WATER CONTENT-- SETTING EXTINCTION WATER CONTENT EQUAL TO RESIDUAL WATER CONTENT

EXTINCTION WATER CONTENT FOR CELL AT ROW     5, COLUMN     5 IS LESS THAN RESIDUAL WATER CONTENT-- SETTING EXTINCTION WATER CONTENT EQUAL TO RESIDUAL WATER CONTENT

EXTINCTION WATER CONTENT FOR CELL AT ROW     5, COLUMN     6 IS LESS THAN RESIDUAL WATER CONTENT-- SETTING EXTINCTION WATER CONTENT EQUAL TO RESIDUAL WATER CONTENT

EXTINCTION WATER CONTENT FOR CELL AT ROW     5, COLUMN     7 IS LESS THAN RESIDUAL WATER CONTENT-- SETTING EXTINCTION WATER CONTENT EQUAL TO RESIDUAL WATER CONTENT

EXTINCTION WATER CONTENT FOR CELL AT ROW     5, COLUMN     8 IS LESS THAN RESIDUAL WATER CONTENT-- SETTING EXTINCTION WATER CONTENT EQUAL TO RESIDUAL WATER CONTENT

EXTINCTION WATER CONTENT FOR CELL AT ROW     5, COLUMN     9 IS LESS THAN RESIDUAL WATER CONTENT-- SETTING EXTINCTION WATER CONTENT EQUAL TO RESIDUAL WATER CONTENT

EXTINCTION WATER CONTENT FOR CELL AT ROW     5, COLUMN    10 IS LESS THAN RESIDUAL WATER CONTENT-- SETTING EXTINCTION WATER CONTENT EQUAL TO RESIDUAL WATER CONTENT

EXTINCTION WATER CONTENT FOR CELL AT ROW     6, COLUMN     1 IS LESS THAN RESIDUAL WATER CONTENT-- SETTING EXTINCTION WATER CONTENT EQUAL TO RESIDUAL WATER CONTENT

EXTINCTION WATER CONTENT FOR CELL AT ROW     6, COLUMN     2 IS LESS THAN RESIDUAL WATER CONTENT-- SETTING EXTINCTION WATER CONTENT EQUAL TO RESIDUAL WATER CONTENT

EXTINCTION WATER CONTENT FOR CELL AT ROW     6, COLUMN     3 IS LESS THAN RESIDUAL WATER CONTENT-- SETTING EXTINCTION WATER CONTENT EQUAL TO RESIDUAL WATER CONTENT

EXTINCTION WATER CONTENT FOR CELL AT ROW     6, COLUMN     4 IS LESS THAN RESIDUAL WATER CONTENT-- SETTING EXTINCTION WATER CONTENT EQUAL TO RESIDUAL WATER CONTENT

EXTINCTION WATER CONTENT FOR CELL AT ROW     6, COLUMN     5 IS LESS THAN RESIDUAL WATER CONTENT-- SETTING EXTINCTION WATER CONTENT EQUAL TO RESIDUAL WATER CONTENT

EXTINCTION WATER CONTENT FOR CELL AT ROW     6, COLUMN     6 IS LESS THAN RESIDUAL WATER CONTENT-- SETTING EXTINCTION WATER CONTENT EQUAL TO RESIDUAL WATER CONTENT

EXTINCTION WATER CONTENT FOR CELL AT ROW     6, COLUMN     7 IS LESS THAN RESIDUAL WATER CONTENT-- SETTING EXTINCTION WATER CONTENT EQUAL TO RESIDUAL WATER CONTENT

EXTINCTION WATER CONTENT FOR CELL AT ROW     6, COLUMN     8 IS LESS THAN RESIDUAL WATER CONTENT-- SETTING EXTINCTION WATER CONTENT EQUAL TO RESIDUAL WATER CONTENT

EXTINCTION WATER CONTENT FOR CELL AT ROW     6, COLUMN     9 IS LESS THAN RESIDUAL WATER CONTENT-- SETTING EXTINCTION WATER CONTENT EQUAL TO RESIDUAL WATER CONTENT

EXTINCTION WATER CONTENT FOR CELL AT ROW     6, COLUMN    10 IS LESS THAN RESIDUAL WATER CONTENT-- SETTING EXTINCTION WATER CONTENT EQUAL TO RESIDUAL WATER CONTENT

EXTINCTION WATER CONTENT FOR CELL AT ROW     7, COLUMN     1 IS LESS THAN RESIDUAL WATER CONTENT-- SETTING EXTINCTION WATER CONTENT EQUAL TO RESIDUAL WATER CONTENT

EXTINCTION WATER CONTENT FOR CELL AT ROW     7, COLUMN     2 IS LESS THAN RESIDUAL WATER CONTENT-- SETTING EXTINCTION WATER CONTENT EQUAL TO RESIDUAL WATER CONTENT

EXTINCTION WATER CONTENT FOR CELL AT ROW     7, COLUMN     3 IS LESS THAN RESIDUAL WATER CONTENT-- SETTING EXTINCTION WATER CONTENT EQUAL TO RESIDUAL WATER CONTENT

EXTINCTION WATER CONTENT FOR CELL AT ROW     7, COLUMN     4 IS LESS THAN RESIDUAL WATER CONTENT-- SETTING EXTINCTION WATER CONTENT EQUAL TO RESIDUAL WATER CONTENT

EXTINCTION WATER CONTENT FOR CELL AT ROW     7, COLUMN     5 IS LESS THAN RESIDUAL WATER CONTENT-- SETTING EXTINCTION WATER CONTENT EQUAL TO RESIDUAL WATER CONTENT

EXTINCTION WATER CONTENT FOR CELL AT ROW     7, COLUMN     6 IS LESS THAN RESIDUAL WATER CONTENT-- SETTING EXTINCTION WATER CONTENT EQUAL TO RESIDUAL WATER CONTENT

EXTINCTION WATER CONTENT FOR CELL AT ROW     7, COLUMN     7 IS LESS THAN RESIDUAL WATER CONTENT-- SETTING EXTINCTION WATER CONTENT EQUAL TO RESIDUAL WATER CONTENT

EXTINCTION WATER CONTENT FOR CELL AT ROW     7, COLUMN     8 IS LESS THAN RESIDUAL WATER CONTENT-- SETTING EXTINCTION WATER CONTENT EQUAL TO RESIDUAL WATER CONTENT

EXTINCTION WATER CONTENT FOR CELL AT ROW     7, COLUMN     9 IS LESS THAN RESIDUAL WATER CONTENT-- SETTING EXTINCTION WATER CONTENT EQUAL TO RESIDUAL WATER CONTENT

EXTINCTION WATER CONTENT FOR CELL AT ROW     8, COLUMN     2 IS LESS THAN RESIDUAL WATER CONTENT-- SETTING EXTINCTION WATER CONTENT EQUAL TO RESIDUAL WATER CONTENT

EXTINCTION WATER CONTENT FOR CELL AT ROW     8, COLUMN     3 IS LESS THAN RESIDUAL WATER CONTENT-- SETTING EXTINCTION WATER CONTENT EQUAL TO RESIDUAL WATER CONTENT

EXTINCTION WATER CONTENT FOR CELL AT ROW     8, COLUMN     4 IS LESS THAN RESIDUAL WATER CONTENT-- SETTING EXTINCTION WATER CONTENT EQUAL TO RESIDUAL WATER CONTENT

EXTINCTION WATER CONTENT FOR CELL AT ROW     8, COLUMN     5 IS LESS THAN RESIDUAL WATER CONTENT-- SETTING EXTINCTION WATER CONTENT EQUAL TO RESIDUAL WATER CONTENT

EXTINCTION WATER CONTENT FOR CELL AT ROW     8, COLUMN     6 IS LESS THAN RESIDUAL WATER CONTENT-- SETTING EXTINCTION WATER CONTENT EQUAL TO RESIDUAL WATER CONTENT

EXTINCTION WATER CONTENT FOR CELL AT ROW     8, COLUMN     7 IS LESS THAN RESIDUAL WATER CONTENT-- SETTING EXTINCTION WATER CONTENT EQUAL TO RESIDUAL WATER CONTENT

EXTINCTION WATER CONTENT FOR CELL AT ROW     8, COLUMN     8 IS LESS THAN RESIDUAL WATER CONTENT-- SETTING EXTINCTION WATER CONTENT EQUAL TO RESIDUAL WATER CONTENT

EXTINCTION WATER CONTENT FOR CELL AT ROW     8, COLUMN     9 IS LESS THAN RESIDUAL WATER CONTENT-- SETTING EXTINCTION WATER CONTENT EQUAL TO RESIDUAL WATER CONTENT

EXTINCTION WATER CONTENT FOR CELL AT ROW     9, COLUMN     2 IS LESS THAN RESIDUAL WATER CONTENT-- SETTING EXTINCTION WATER CONTENT EQUAL TO RESIDUAL WATER CONTENT

EXTINCTION WATER CONTENT FOR CELL AT ROW     9, COLUMN     3 IS LESS THAN RESIDUAL WATER CONTENT-- SETTING EXTINCTION WATER CONTENT EQUAL TO RESIDUAL WATER CONTENT

EXTINCTION WATER CONTENT FOR CELL AT ROW     9, COLUMN     4 IS LESS THAN RESIDUAL WATER CONTENT-- SETTING EXTINCTION WATER CONTENT EQUAL TO RESIDUAL WATER CONTENT

EXTINCTION WATER CONTENT FOR CELL AT ROW     9, COLUMN     5 IS LESS THAN RESIDUAL WATER CONTENT-- SETTING EXTINCTION WATER CONTENT EQUAL TO RESIDUAL WATER CONTENT

EXTINCTION WATER CONTENT FOR CELL AT ROW     9, COLUMN     6 IS LESS THAN RESIDUAL WATER CONTENT-- SETTING EXTINCTION WATER CONTENT EQUAL TO RESIDUAL WATER CONTENT

EXTINCTION WATER CONTENT FOR CELL AT ROW     9, COLUMN     7 IS LESS THAN RESIDUAL WATER CONTENT-- SETTING EXTINCTION WATER CONTENT EQUAL TO RESIDUAL WATER CONTENT

EXTINCTION WATER CONTENT FOR CELL AT ROW     9, COLUMN     8 IS LESS THAN RESIDUAL WATER CONTENT-- SETTING EXTINCTION WATER CONTENT EQUAL TO RESIDUAL WATER CONTENT

EXTINCTION WATER CONTENT FOR CELL AT ROW     9, COLUMN     9 IS LESS THAN RESIDUAL WATER CONTENT-- SETTING EXTINCTION WATER CONTENT EQUAL TO RESIDUAL WATER CONTENT

EXTINCTION WATER CONTENT FOR CELL AT ROW    10, COLUMN     2 IS LESS THAN RESIDUAL WATER CONTENT-- SETTING EXTINCTION WATER CONTENT EQUAL TO RESIDUAL WATER CONTENT

EXTINCTION WATER CONTENT FOR CELL AT ROW    10, COLUMN     3 IS LESS THAN RESIDUAL WATER CONTENT-- SETTING EXTINCTION WATER CONTENT EQUAL TO RESIDUAL WATER CONTENT

EXTINCTION WATER CONTENT FOR CELL AT ROW    10, COLUMN     4 IS LESS THAN RESIDUAL WATER CONTENT-- SETTING EXTINCTION WATER CONTENT EQUAL TO RESIDUAL WATER CONTENT

EXTINCTION WATER CONTENT FOR CELL AT ROW    10, COLUMN     5 IS LESS THAN RESIDUAL WATER CONTENT-- SETTING EXTINCTION WATER CONTENT EQUAL TO RESIDUAL WATER CONTENT

EXTINCTION WATER CONTENT FOR CELL AT ROW    10, COLUMN     6 IS LESS THAN RESIDUAL WATER CONTENT-- SETTING EXTINCTION WATER CONTENT EQUAL TO RESIDUAL WATER CONTENT

EXTINCTION WATER CONTENT FOR CELL AT ROW    10, COLUMN     7 IS LESS THAN RESIDUAL WATER CONTENT-- SETTING EXTINCTION WATER CONTENT EQUAL TO RESIDUAL WATER CONTENT

EXTINCTION WATER CONTENT FOR CELL AT ROW    10, COLUMN     8 IS LESS THAN RESIDUAL WATER CONTENT-- SETTING EXTINCTION WATER CONTENT EQUAL TO RESIDUAL WATER CONTENT

EXTINCTION WATER CONTENT FOR CELL AT ROW    10, COLUMN     9 IS LESS THAN RESIDUAL WATER CONTENT-- SETTING EXTINCTION WATER CONTENT EQUAL TO RESIDUAL WATER CONTENT

EXTINCTION WATER CONTENT FOR CELL AT ROW    10, COLUMN    10 IS LESS THAN RESIDUAL WATER CONTENT-- SETTING EXTINCTION WATER CONTENT EQUAL TO RESIDUAL WATER CONTENT

EXTINCTION WATER CONTENT FOR CELL AT ROW    11, COLUMN     2 IS LESS THAN RESIDUAL WATER CONTENT-- SETTING EXTINCTION WATER CONTENT EQUAL TO RESIDUAL WATER CONTENT

EXTINCTION WATER CONTENT FOR CELL AT ROW    11, COLUMN     3 IS LESS THAN RESIDUAL WATER CONTENT-- SETTING EXTINCTION WATER CONTENT EQUAL TO RESIDUAL WATER CONTENT

EXTINCTION WATER CONTENT FOR CELL AT ROW    11, COLUMN     4 IS LESS THAN RESIDUAL WATER CONTENT-- SETTING EXTINCTION WATER CONTENT EQUAL TO RESIDUAL WATER CONTENT

EXTINCTION WATER CONTENT FOR CELL AT ROW    11, COLUMN     5 IS LESS THAN RESIDUAL WATER CONTENT-- SETTING EXTINCTION WATER CONTENT EQUAL TO RESIDUAL WATER CONTENT

EXTINCTION WATER CONTENT FOR CELL AT ROW    11, COLUMN     6 IS LESS THAN RESIDUAL WATER CONTENT-- SETTING EXTINCTION WATER CONTENT EQUAL TO RESIDUAL WATER CONTENT

EXTINCTION WATER CONTENT FOR CELL AT ROW    11, COLUMN     7 IS LESS THAN RESIDUAL WATER CONTENT-- SETTING EXTINCTION WATER CONTENT EQUAL TO RESIDUAL WATER CONTENT

EXTINCTION WATER CONTENT FOR CELL AT ROW    11, COLUMN     8 IS LESS THAN RESIDUAL WATER CONTENT-- SETTING EXTINCTION WATER CONTENT EQUAL TO RESIDUAL WATER CONTENT

EXTINCTION WATER CONTENT FOR CELL AT ROW    11, COLUMN     9 IS LESS THAN RESIDUAL WATER CONTENT-- SETTING EXTINCTION WATER CONTENT EQUAL TO RESIDUAL WATER CONTENT

EXTINCTION WATER CONTENT FOR CELL AT ROW    12, COLUMN     1 IS LESS THAN RESIDUAL WATER CONTENT-- SETTING EXTINCTION WATER CONTENT EQUAL TO RESIDUAL WATER CONTENT

EXTINCTION WATER CONTENT FOR CELL AT ROW    12, COLUMN     2 IS LESS THAN RESIDUAL WATER CONTENT-- SETTING EXTINCTION WATER CONTENT EQUAL TO RESIDUAL WATER CONTENT

EXTINCTION WATER CONTENT FOR CELL AT ROW    12, COLUMN     3 IS LESS THAN RESIDUAL WATER CONTENT-- SETTING EXTINCTION WATER CONTENT EQUAL TO RESIDUAL WATER CONTENT

EXTINCTION WATER CONTENT FOR CELL AT ROW    12, COLUMN     4 IS LESS THAN RESIDUAL WATER CONTENT-- SETTING EXTINCTION WATER CONTENT EQUAL TO RESIDUAL WATER CONTENT

EXTINCTION WATER CONTENT FOR CELL AT ROW    12, COLUMN     5 IS LESS THAN RESIDUAL WATER CONTENT-- SETTING EXTINCTION WATER CONTENT EQUAL TO RESIDUAL WATER CONTENT

EXTINCTION WATER CONTENT FOR CELL AT ROW    12, COLUMN     6 IS LESS THAN RESIDUAL WATER CONTENT-- SETTING EXTINCTION WATER CONTENT EQUAL TO RESIDUAL WATER CONTENT

EXTINCTION WATER CONTENT FOR CELL AT ROW    12, COLUMN     7 IS LESS THAN RESIDUAL WATER CONTENT-- SETTING EXTINCTION WATER CONTENT EQUAL TO RESIDUAL WATER CONTENT

EXTINCTION WATER CONTENT FOR CELL AT ROW    12, COLUMN     8 IS LESS THAN RESIDUAL WATER CONTENT-- SETTING EXTINCTION WATER CONTENT EQUAL TO RESIDUAL WATER CONTENT

EXTINCTION WATER CONTENT FOR CELL AT ROW    12, COLUMN     9 IS LESS THAN RESIDUAL WATER CONTENT-- SETTING EXTINCTION WATER CONTENT EQUAL TO RESIDUAL WATER CONTENT

EXTINCTION WATER CONTENT FOR CELL AT ROW    13, COLUMN     1 IS LESS THAN RESIDUAL WATER CONTENT-- SETTING EXTINCTION WATER CONTENT EQUAL TO RESIDUAL WATER CONTENT

EXTINCTION WATER CONTENT FOR CELL AT ROW    13, COLUMN     2 IS LESS THAN RESIDUAL WATER CONTENT-- SETTING EXTINCTION WATER CONTENT EQUAL TO RESIDUAL WATER CONTENT

EXTINCTION WATER CONTENT FOR CELL AT ROW    13, COLUMN     3 IS LESS THAN RESIDUAL WATER CONTENT-- SETTING EXTINCTION WATER CONTENT EQUAL TO RESIDUAL WATER CONTENT

EXTINCTION WATER CONTENT FOR CELL AT ROW    13, COLUMN     4 IS LESS THAN RESIDUAL WATER CONTENT-- SETTING EXTINCTION WATER CONTENT EQUAL TO RESIDUAL WATER CONTENT

EXTINCTION WATER CONTENT FOR CELL AT ROW    13, COLUMN     5 IS LESS THAN RESIDUAL WATER CONTENT-- SETTING EXTINCTION WATER CONTENT EQUAL TO RESIDUAL WATER CONTENT

EXTINCTION WATER CONTENT FOR CELL AT ROW    13, COLUMN     6 IS LESS THAN RESIDUAL WATER CONTENT-- SETTING EXTINCTION WATER CONTENT EQUAL TO RESIDUAL WATER CONTENT

EXTINCTION WATER CONTENT FOR CELL AT ROW    13, COLUMN     7 IS LESS THAN RESIDUAL WATER CONTENT-- SETTING EXTINCTION WATER CONTENT EQUAL TO RESIDUAL WATER CONTENT

EXTINCTION WATER CONTENT FOR CELL AT ROW    13, COLUMN     8 IS LESS THAN RESIDUAL WATER CONTENT-- SETTING EXTINCTION WATER CONTENT EQUAL TO RESIDUAL WATER CONTENT

EXTINCTION WATER CONTENT FOR CELL AT ROW    13, COLUMN     9 IS LESS THAN RESIDUAL WATER CONTENT-- SETTING EXTINCTION WATER CONTENT EQUAL TO RESIDUAL WATER CONTENT

EXTINCTION WATER CONTENT FOR CELL AT ROW    14, COLUMN     2 IS LESS THAN RESIDUAL WATER CONTENT-- SETTING EXTINCTION WATER CONTENT EQUAL TO RESIDUAL WATER CONTENT

EXTINCTION WATER CONTENT FOR CELL AT ROW    14, COLUMN     3 IS LESS THAN RESIDUAL WATER CONTENT-- SETTING EXTINCTION WATER CONTENT EQUAL TO RESIDUAL WATER CONTENT

EXTINCTION WATER CONTENT FOR CELL AT ROW    14, COLUMN     4 IS LESS THAN RESIDUAL WATER CONTENT-- SETTING EXTINCTION WATER CONTENT EQUAL TO RESIDUAL WATER CONTENT

EXTINCTION WATER CONTENT FOR CELL AT ROW    14, COLUMN     5 IS LESS THAN RESIDUAL WATER CONTENT-- SETTING EXTINCTION WATER CONTENT EQUAL TO RESIDUAL WATER CONTENT

EXTINCTION WATER CONTENT FOR CELL AT ROW    14, COLUMN     6 IS LESS THAN RESIDUAL WATER CONTENT-- SETTING EXTINCTION WATER CONTENT EQUAL TO RESIDUAL WATER CONTENT

EXTINCTION WATER CONTENT FOR CELL AT ROW    14, COLUMN     7 IS LESS THAN RESIDUAL WATER CONTENT-- SETTING EXTINCTION WATER CONTENT EQUAL TO RESIDUAL WATER CONTENT

EXTINCTION WATER CONTENT FOR CELL AT ROW    14, COLUMN     8 IS LESS THAN RESIDUAL WATER CONTENT-- SETTING EXTINCTION WATER CONTENT EQUAL TO RESIDUAL WATER CONTENT

EXTINCTION WATER CONTENT FOR CELL AT ROW    14, COLUMN     9 IS LESS THAN RESIDUAL WATER CONTENT-- SETTING EXTINCTION WATER CONTENT EQUAL TO RESIDUAL WATER CONTENT

EXTINCTION WATER CONTENT FOR CELL AT ROW    15, COLUMN     3 IS LESS THAN RESIDUAL WATER CONTENT-- SETTING EXTINCTION WATER CONTENT EQUAL TO RESIDUAL WATER CONTENT

EXTINCTION WATER CONTENT FOR CELL AT ROW    15, COLUMN     4 IS LESS THAN RESIDUAL WATER CONTENT-- SETTING EXTINCTION WATER CONTENT EQUAL TO RESIDUAL WATER CONTENT

EXTINCTION WATER CONTENT FOR CELL AT ROW    15, COLUMN     5 IS LESS THAN RESIDUAL WATER CONTENT-- SETTING EXTINCTION WATER CONTENT EQUAL TO RESIDUAL WATER CONTENT

EXTINCTION WATER CONTENT FOR CELL AT ROW    15, COLUMN     6 IS LESS THAN RESIDUAL WATER CONTENT-- SETTING EXTINCTION WATER CONTENT EQUAL TO RESIDUAL WATER CONTENT

       AIR ENTRY PRESSURE =  -1.10000    

            ROOT PRESSURE =  -75.0000    

            ROOT ACTIVITY =   1.00000    
 # AG segment list

 PROCESSING SEGMENT LIST

 FINISHED READING SEGMENT LIST
 # AG well list

 PROCESSING WELL LIST

 LAYER   ROW   COL   MAX STRESS RATE         
 --------------------------------------------
      1      1      6      4      -100.0    
      2      1      6      5      -100.0    
      3      1      7      4      -100.0    
      4      1      7      5      -100.0    
      5      1      8      4      -100.0    
      6      1      8      5      -100.0    

 FINISHED READING WELL LIST

      6 WELLS

 PROCESSING AG STRESS PERIOD DATA
 # AG stress period

 READING AG STRESS PERIOD DATA

 READING IRRIGATION SEGMENT

 READING IRRIGATION WELL

 READING SUPPLEMENTAL WELL

 END PROCESSING AG STRESS PERIOD DATA OPTIONS
 
 SOLVING FOR HEAD 
                                                   Max.-Head-Change                         Max.-Flux-Residual
  Residual-Control   Outer-Iter.   Inner-Iter.     Column Row Layer    Maximum-Head-Change  Column Row Layer    Maximum-Flux-Residual          L2-NORM 
          0                 1           6             2    2     1      -0.3091902064E+02       3    3    1        -0.3387725593E+01      0.9438782865E+01
          0                 2           6             1    1     1      -0.3160283292E+02       1   13    1        -0.6317714402E+02      0.6341706057E+02
          0                 3           5             1    1     1      -0.1218344574E+01       1   13    1        -0.2090503639E+01      0.2852988538E+01
          0                 4           5             5   13     1      -0.3531913407E+00       5   13    1        -0.5902046470E+00      0.6060818052E+00
          0                 5           4             5   14     1       0.5787723920E-01       5   13    1         0.2547336429E-01      0.4765602283E-01
          0                 6           2             5   14     1      -0.2238284060E-02       5   12    1        -0.2373325674E-02      0.3894923016E-02
          0                 7           1             5   12     1       0.4405428811E-04       5   12    1         0.1191611464E-03      0.1657509654E-03

    ------------------------------------------------
       NWT REQUIRED            7 OUTER ITERATIONS 
       AND A TOTAL OF         29 INNER ITERATIONS.
    ------------------------------------------------

 OUTPUT CONTROL FOR STRESS PERIOD    1   TIME STEP    1
    PRINT BUDGET
    PRINT HEAD FOR ALL LAYERS
    SAVE BUDGET
    SAVE HEAD FOR ALL LAYERS
 UBDSV2 SAVING "   CONSTANT HEAD" ON UNIT 102 AT TIME STEP  1, STRESS PERIOD   1
 UBDSV1 SAVING "FLOW RIGHT FACE " ON UNIT 102 AT TIME STEP  1, STRESS PERIOD   1
 UBDSV1 SAVING "FLOW FRONT FACE " ON UNIT 102 AT TIME STEP  1, STRESS PERIOD   1

  HEAD DEP BOUNDS   PERIOD    1   STEP     1
 BOUNDARY      1   LAYER   1   ROW    13   COL     1   RATE   -0.286536    
 BOUNDARY      2   LAYER   1   ROW    14   COL     9   RATE    0.287755    



 STREAM LISTING     PERIOD      1   STEP        1

 LAYER ROW COL. STREAM  RCH.  FLOW INTO     FLOW TO   FLOW OUT OF   OVRLND.     DIRECT     STREAM       STREAM     STREAM     STREAM   STREAMBED  STREAMBED
                SEG.NO.  NO.  STRM. RCH.    AQUIFER    STRM. RCH.    RUNOFF     PRECIP       ET          HEAD       DEPTH      WIDTH   CONDCTNC.   GRADIENT

   1    1    1     1     1    1.8750E+00  6.5285E-02   1.8097E+00  0.000E+00  0.000E+00  0.000E+00  1.09358E+03  5.296E-01  4.110E+00  1.850E-02  1.177E+00
   1    2    2     1     2    1.8097E+00  1.0002E-01   1.7097E+00  0.000E+00  0.000E+00  0.000E+00  1.08858E+03  5.186E-01  4.061E+00  2.843E-02  1.173E+00
   1    3    3     1     3    1.7097E+00  8.4225E-02   1.6255E+00  0.000E+00  0.000E+00  0.000E+00  1.08292E+03  5.059E-01  4.004E+00  2.402E-02  1.169E+00
   1    3    4     1     4    1.6255E+00  7.6652E-02   1.5488E+00  0.000E+00  0.000E+00  0.000E+00  1.07790E+03  4.946E-01  3.952E+00  2.193E-02  1.165E+00
   1    4    5     2     1    0.0000E+00  0.0000E+00   0.0000E+00  0.000E+00  0.000E+00  0.000E+00  1.07193E+03  0.000E+00  1.200E+01  7.800E-02  1.000E+00
   1    5    6     2     2    0.0000E+00  0.0000E+00   0.0000E+00  0.000E+00  0.000E+00  0.000E+00  1.06651E+03  0.000E+00  1.200E+01  6.000E-02  1.000E+00
   1    6    6     2     3    0.0000E+00  0.0000E+00   0.0000E+00  0.000E+00  0.000E+00  0.000E+00  1.06179E+03  0.000E+00  1.200E+01  6.000E-02  1.000E+00
   1    7    6     2     4    0.0000E+00  0.0000E+00   0.0000E+00  0.000E+00  0.000E+00  0.000E+00  1.05708E+03  0.000E+00  1.200E+01  6.000E-02  1.000E+00
   1    8    6     2     5    0.0000E+00  0.0000E+00   0.0000E+00  0.000E+00  0.000E+00  0.000E+00  1.05236E+03  0.000E+00  1.200E+01  6.000E-02  1.000E+00
   1    3    5     3     1    1.5488E+00  2.8252E-01   1.2663E+00  0.000E+00  0.000E+00  0.000E+00  1.07555E+03  1.909E+00  9.636E+00  7.227E-02  1.955E+00
   1    3    6     3     2    1.2663E+00  2.4905E-01   1.0172E+00  0.000E+00  0.000E+00  0.000E+00  1.07264E+03  1.727E+00  8.909E+00  6.682E-02  1.864E+00
   1    3    7     3     3    1.0172E+00  1.9718E-01   8.2007E-01  0.000E+00  0.000E+00  0.000E+00  1.06987E+03  1.555E+00  8.218E+00  5.547E-02  1.777E+00
   1    4    8     3     4    8.2007E-01  2.2567E-01   5.9440E-01  0.000E+00  0.000E+00  0.000E+00  1.06682E+03  1.364E+00  7.455E+00  6.709E-02  1.682E+00
   1    5    8     3     5    5.9440E-01  1.5790E-01   4.3650E-01  0.000E+00  0.000E+00  0.000E+00  1.06362E+03  1.164E+00  6.655E+00  4.991E-02  1.582E+00
   1    6    8     3     6    4.3650E-01  5.5980E-02   3.8052E-01  0.000E+00  0.000E+00  0.000E+00  1.06158E+03  1.036E+00  6.145E+00  1.844E-02  1.518E+00
   1    5   10     4     1    1.0000E+01  9.0919E-02   9.9091E+00  0.000E+00  0.000E+00  0.000E+00  1.07836E+03  6.368E-01  1.000E+01  2.500E-02  1.212E+00
   1    5    9     4     2    9.9091E+00  1.8158E-01   9.7275E+00  0.000E+00  0.000E+00  0.000E+00  1.07154E+03  6.315E-01  1.000E+01  5.000E-02  1.211E+00
   1    6    8     4     3    9.7275E+00  1.2689E-01   9.6006E+00  0.000E+00  0.000E+00  0.000E+00  1.06381E+03  6.256E-01  1.000E+01  3.500E-02  1.209E+00
   1    6    8     5     1    9.9811E+00  2.2027E-01   9.7609E+00  0.000E+00  0.000E+00  0.000E+00  1.05867E+03  6.686E-01  1.501E+01  6.004E-02  1.223E+00
   1    7    7     5     2    9.7609E+00  2.7078E-01   9.4901E+00  0.000E+00  0.000E+00  0.000E+00  1.05416E+03  6.627E-01  1.479E+01  7.393E-02  1.221E+00
   1    8    7     5     3    9.4901E+00  1.8654E-01   9.3035E+00  0.000E+00  0.000E+00  0.000E+00  1.04991E+03  6.571E-01  1.457E+01  5.101E-02  1.219E+00
   1    8    6     5     4    9.3035E+00  1.3175E-01   9.1718E+00  0.000E+00  0.000E+00  0.000E+00  1.04690E+03  6.532E-01  1.443E+01  3.606E-02  1.218E+00
   1    9    6     6     1    9.1718E+00  2.1985E-01   8.9519E+00  0.000E+00  0.000E+00  0.000E+00  1.04339E+03  6.642E-01  1.200E+01  6.000E-02  1.221E+00
   1   10    7     6     2    8.9519E+00  2.1927E-01   8.7327E+00  0.000E+00  0.000E+00  0.000E+00  1.03884E+03  6.545E-01  1.200E+01  6.000E-02  1.218E+00
   1   11    7     6     3    8.7327E+00  2.1868E-01   8.5140E+00  0.000E+00  0.000E+00  0.000E+00  1.03428E+03  6.447E-01  1.200E+01  6.000E-02  1.215E+00
   1   12    7     6     4    8.5140E+00  2.1809E-01   8.2959E+00  0.000E+00  0.000E+00  0.000E+00  1.02973E+03  6.349E-01  1.200E+01  6.000E-02  1.212E+00
   1   13    7     6     5    8.2959E+00 -6.5708E-02   8.3616E+00  0.000E+00  0.000E+00  0.000E+00  1.02654E+03  6.314E-01  1.200E+01  2.400E-01 -9.126E-02
   1   14    9     7     1    1.5000E+02  1.3651E+00   1.4863E+02  0.000E+00  0.000E+00  0.000E+00  1.03987E+03  2.288E+00  5.529E+01  5.593E-01  8.136E-01
   1   13    8     7     2    1.4863E+02  1.9205E+00   1.4671E+02  0.000E+00  0.000E+00  0.000E+00  1.03478E+03  2.279E+00  5.526E+01  6.148E-01  1.041E+00
   1   13    7     7     3    1.4671E+02  1.6052E+00   1.4511E+02  0.000E+00  0.000E+00  0.000E+00  1.02969E+03  2.269E+00  5.521E+01  5.584E-01  9.582E-01
   1   13    6     8     1    1.5347E+02  9.5026E-01   1.5252E+02  0.000E+00  0.000E+00  0.000E+00  1.02471E+03  2.838E+00  4.115E+01  4.193E-01  7.554E-01
   1   13    5     8     2    1.5252E+02  2.1144E-01   1.5231E+02  0.000E+00  0.000E+00  0.000E+00  1.01846E+03  2.834E+00  4.109E+01  4.187E-01  1.683E-01
   1   13    4     8     3    1.5231E+02 -2.3074E+00   1.5462E+02  0.000E+00  0.000E+00  0.000E+00  1.01222E+03  2.841E+00  4.120E+01  4.198E+00 -1.832E-01
   1   13    3     8     4    1.5462E+02 -3.5750E+00   1.5819E+02  0.000E+00  0.000E+00  0.000E+00  1.00599E+03  2.861E+00  4.149E+01  4.228E+00 -2.819E-01
   1   13    2     8     5    1.5819E+02 -2.5597E+00   1.6075E+02  0.000E+00  0.000E+00  0.000E+00  9.99757E+02  2.882E+00  4.179E+01  4.259E+00 -2.003E-01
   1   13    1     8     6    1.6075E+02 -1.9726E+00   1.6272E+02  0.000E+00  0.000E+00  0.000E+00  9.94773E+02  2.898E+00  4.201E+01  2.569E+00 -2.560E-01
   1    8    6     9     1    0.0000E+00  0.0000E+00   0.0000E+00  0.000E+00  0.000E+00  0.000E+00  1.07875E+03  0.000E+00  4.000E+00  0.000E+00  1.000E+00
   1    8    5     9     2    0.0000E+00  0.0000E+00   0.0000E+00  0.000E+00  0.000E+00  0.000E+00  1.07825E+03  0.000E+00  4.000E+00  0.000E+00  1.000E+00



 UBDSV3 SAVING "           GW ET" ON UNIT  61 AT TIME STEP  1, STRESS PERIOD   1
 UBDSV3 SAVING "    UZF RECHARGE" ON UNIT  61 AT TIME STEP  1, STRESS PERIOD   1
 UBDSV3 SAVING " SURFACE LEAKAGE" ON UNIT  61 AT TIME STEP  1, STRESS PERIOD   1
 UBDSV3 SAVING "       HORT+DUNN" ON UNIT  61 AT TIME STEP  1, STRESS PERIOD   1
 UBDSV3 SAVING "  STORAGE CHANGE" ON UNIT  61 AT TIME STEP  1, STRESS PERIOD   1


UNSATURATED ZONE PACKAGE VOLUMETRIC BUDGET FOR  TIME STEP     1 STRESS PERIOD    1
  ------------------------------------------------------------------------------



     CUMULATIVE VOLUMES      L**3       RATES FOR THIS TIME STEP      L**3/T
     ------------------                 ------------------------

           IN:                                      IN:
           ---                                      ---
        INFILTRATION =       73224.0000          INFILTRATION =           0.8475

          OUT:                                     OUT:
          ----                                     ----
              UZF ET =       0.0000E+00                UZF ET =       0.0000E+00
        UZF RECHARGE =       73224.0000          UZF RECHARGE =           0.8475

            IN - OUT =       0.0000E+00              IN - OUT =       0.0000E+00

          STORAGE:                                 STORAGE:
          --------                                 --------
      STORAGE CHANGE =       0.0000E+00        STORAGE CHANGE =       0.0000E+00

 PERCENT DISCREPANCY IS DIFFERENCE BETWEEN IN-OUT MINUS CHANGE IN STORAGE
 DIVIDED BY THE AVERAGE OF IN AND OUT TIMES 100

 PERCENT DISCREPANCY =           0.00     PERCENT DISCREPANCY =           0.00






 

        AG WELLS          PERIOD    1   STEP   1
 AG WELL      1   LAYER   1   ROW     6   COL     4   RATE     0.00000    
 AG WELL      2   LAYER   1   ROW     6   COL     5   RATE     0.00000    
 AG WELL      3   LAYER   1   ROW     7   COL     4   RATE     0.00000    
 AG WELL      4   LAYER   1   ROW     7   COL     5   RATE     0.00000    
 AG WELL      5   LAYER   1   ROW     8   COL     4   RATE     0.00000    
 AG WELL      6   LAYER   1   ROW     8   COL     5   RATE     0.00000    
 
 

   DIVERSION SEGMENTS     PERIOD    1   STEP   1
 
 

        SW IRRIGATION     PERIOD    1   STEP   1
 
 

        GW IRRIGATION     PERIOD    1   STEP   1
 
1
  VOLUMETRIC BUDGET FOR AGRICULTURAL FIELDS AT  END OF TIME STEP    1, STRESS PERIOD   1
  ------------------------------------------------------------------------------

     CUMULATIVE VOLUMES      L**3       RATES FOR THIS TIME STEP      L**3/T
     ------------------                 ------------------------

           IN:                                      IN:
           ---                                      ---
           AG WELLS      =           0.0000             AG WELLS      =           0.0000
      DIVERSION SEGMENTS =           0.0000        DIVERSION SEGMENTS =           0.0000
           GW IRRIGATION =           0.0000             GW IRRIGATION =           0.0000
           SW IRRIGATION =           0.0000             SW IRRIGATION =           0.0000
        SYSTEM LOSSES GW =           0.0000          SYSTEM LOSSES GW =           0.0000
        SYSTEM LOSSES SW =           0.0000          SYSTEM LOSSES SW =           0.0000

                TOTAL IN =           0.0000                  TOTAL IN =           0.0000

          OUT:                                     OUT:
          ----                                     ----
           AG WELLS      =           0.0000             AG WELLS      =           0.0000
      DIVERSION SEGMENTS =           0.0000        DIVERSION SEGMENTS =           0.0000
           GW IRRIGATION =           0.0000             GW IRRIGATION =           0.0000
           SW IRRIGATION =           0.0000             SW IRRIGATION =           0.0000
        SYSTEM LOSSES GW =           0.0000          SYSTEM LOSSES GW =           0.0000
        SYSTEM LOSSES SW =           0.0000          SYSTEM LOSSES SW =           0.0000

               TOTAL OUT =           0.0000                 TOTAL OUT =           0.0000

                IN - OUT =           0.0000                  IN - OUT =           0.0000

     PERCENT DISCREPANCY =           0.00         PERCENT DISCREPANCY =           0.00



1
              HEAD IN LAYER   1 AT END OF TIME STEP   1 IN STRESS PERIOD    1
  ---------------------------------------------------------------------------

           1       2       3       4       5       6       7       8       9      10
 ...................................................................................
   1  1029.26 1028.37 6999.00 6999.00 6999.00 6999.00 6999.00 6999.00 6999.00 6999.00
   2  1028.45 1027.36 1026.88 6999.00 6999.00 1028.30 1028.48 1028.46 6999.00 6999.00
   3  6999.00 1026.66 1026.39 1026.21 1026.77 1027.48 1028.04 1028.04 6999.00 6999.00
   4  1026.25 1026.11 1025.89 1025.72 1025.72 1025.86 1026.44 1027.58 1027.34 6999.00
   5  1025.90 1025.50 1025.30 1025.20 1025.26 1025.43 1025.71 1026.26 1026.91 1027.46
   6  1025.46 1024.92 1024.71 1024.66 1024.75 1024.99 1025.37 1025.92 1026.38 1027.29
   7  1025.06 1024.16 1023.99 1024.01 1024.15 1024.46 1024.94 1025.38 1025.92 6999.00
   8  6999.00 1023.02 1023.05 1023.19 1023.40 1023.81 1024.28 1024.92 1025.60 6999.00
   9  6999.00 1021.31 1021.62 1022.06 1022.44 1023.05 1023.57 1024.31 1025.54 6999.00
  10  6999.00 1018.82 1019.57 1020.57 1021.33 1022.32 1023.23 1024.33 1025.99 1026.64
  11  6999.00 1014.68 1016.10 1018.53 1020.11 1021.81 1023.34 1025.18 1027.44 6999.00
  12  1001.77 1007.67 1011.76 1015.60 1018.78 1021.71 1024.22 1027.74 1030.81 6999.00
  13   995.54 1000.36 1006.83 1012.77 1017.95 1022.45 1026.81 1031.65 1034.50 6999.00
  14  6999.00 1005.73 1008.80 1013.40 1018.06 1022.43 1027.39 1032.95 1037.43 6999.00
  15  6999.00 6999.00 1012.40 1015.08 1018.50 1021.48 6999.00 6999.00 6999.00 6999.00

 HEAD WILL BE SAVED ON UNIT   62 AT END OF TIME STEP    1, STRESS PERIOD    1
1
  VOLUMETRIC BUDGET FOR ENTIRE MODEL AT END OF TIME STEP    1, STRESS PERIOD   1
  ------------------------------------------------------------------------------

     CUMULATIVE VOLUMES      L**3       RATES FOR THIS TIME STEP      L**3/T
     ------------------                 ------------------------

           IN:                                      IN:
           ---                                      ---
             STORAGE     =           0.0000               STORAGE     =           0.0000
       CONSTANT HEAD     =           0.0000         CONSTANT HEAD     =           0.0000
     HEAD DEP BOUNDS     =       24862.0605       HEAD DEP BOUNDS     =           0.2878
      STREAM LEAKAGE     =      832172.8125        STREAM LEAKAGE     =           9.6316
        UZF RECHARGE     =       73223.9531          UZF RECHARGE     =           0.8475
               GW ET     =           0.0000                 GW ET     =           0.0000
     SURFACE LEAKAGE     =           0.0000       SURFACE LEAKAGE     =           0.0000
           AG WELLS      =           0.0000             AG WELLS      =           0.0000

                TOTAL IN =      930258.8125                  TOTAL IN =          10.7669

          OUT:                                     OUT:
          ----                                     ----
             STORAGE     =           0.0000               STORAGE     =           0.0000
       CONSTANT HEAD     =           0.0000         CONSTANT HEAD     =           0.0000
     HEAD DEP BOUNDS     =       24756.7500       HEAD DEP BOUNDS     =           0.2865
      STREAM LEAKAGE     =      905501.8750        STREAM LEAKAGE     =          10.4803
        UZF RECHARGE     =           0.0000          UZF RECHARGE     =           0.0000
               GW ET     =           0.0000                 GW ET     =           0.0000
     SURFACE LEAKAGE     =           0.0000       SURFACE LEAKAGE     =           0.0000
           AG WELLS      =           0.0000             AG WELLS      =           0.0000

               TOTAL OUT =      930258.6250                 TOTAL OUT =          10.7669

                IN - OUT =           0.1875                  IN - OUT =       2.8610E-06

     PERCENT DISCREPANCY =           0.00         PERCENT DISCREPANCY =           0.00






         TIME SUMMARY AT END OF TIME STEP    1 IN STRESS PERIOD    1
                    SECONDS     MINUTES      HOURS       DAYS        YEARS
                    -----------------------------------------------------------
   TIME STEP LENGTH  86400.      1440.0      24.000      1.0000     2.73785E-03
 STRESS PERIOD TIME  86400.      1440.0      24.000      1.0000     2.73785E-03
         TOTAL TIME  86400.      1440.0      24.000      1.0000     2.73785E-03
1
1
                            STRESS PERIOD NO.    2, LENGTH =   2630000.    
                            -----------------------------------------------

                              NUMBER OF TIME STEPS =    30

                               MULTIPLIER FOR DELT =     1.000

                            INITIAL TIME STEP SIZE =   87666.66    

 REUSING NON-PARAMETER GHB CELLS FROM LAST STRESS PERIOD

      2 GHB CELLS

 REUSING STREAM SEGMENT DATA FROM LAST STRESS PERIOD



            AREAL INFILTRATION RATE
 READING ON UNIT   19 WITH FORMAT: (FREE)              

            1           2           3           4           5           6           7           8           9          10
 ........................................................................................................................
   1   1.0000E-10  2.0000E-10   0.000       0.000       0.000       0.000       0.000       0.000       0.000       0.000    
   2   2.0000E-10  1.0000E-10  2.0000E-10   0.000       0.000      8.0000E-10  8.0000E-10  5.0000E-10   0.000       0.000    
   3    0.000      5.0000E-10  1.0000E-10  1.0000E-10  8.0000E-10  8.0000E-10  5.0000E-10  5.0000E-10   0.000       0.000    
   4   8.0000E-10  5.0000E-10  1.0000E-10  1.0000E-10  1.0000E-10  1.0000E-10  1.0000E-10  1.0000E-10  2.0000E-10   0.000    
   5   8.0000E-10  5.0000E-10  1.0000E-10  1.0000E-10  1.0000E-10  1.0000E-10  1.0000E-10  1.0000E-10  1.0000E-10  1.0000E-10
   6   8.0000E-10  5.0000E-10  5.0000E-10  2.0000E-10  2.0000E-10  1.0000E-10  1.0000E-10  1.0000E-10  1.0000E-10  5.0000E-10
   7   8.0000E-10  5.0000E-10  5.0000E-10  2.0000E-10  2.0000E-10  1.0000E-10  1.0000E-10  2.0000E-10  2.0000E-10   0.000    
   8    0.000      5.0000E-10  5.0000E-10  2.0000E-10  2.0000E-10  1.0000E-10  1.0000E-10  2.0000E-10  5.0000E-10   0.000    
   9    0.000      5.0000E-10  5.0000E-10  2.0000E-10  2.0000E-10  1.0000E-10  1.0000E-10  2.0000E-10  5.0000E-10   0.000    
  10    0.000      5.0000E-10  5.0000E-10  2.0000E-10  2.0000E-10  1.0000E-10  1.0000E-10  2.0000E-10  5.0000E-10  8.0000E-10
  11    0.000      1.0000E-10  1.0000E-10  1.0000E-10  1.0000E-10  1.0000E-10  1.0000E-10  2.0000E-10  5.0000E-10   0.000    
  12   1.0000E-10  1.0000E-10  1.0000E-10  1.0000E-10  1.0000E-10  1.0000E-10  1.0000E-10  1.0000E-10  2.0000E-10   0.000    
  13   1.0000E-10  1.0000E-10  2.0000E-10  2.0000E-10  2.0000E-10  2.0000E-10  2.0000E-10  1.0000E-10  1.0000E-10   0.000    
  14    0.000      2.0000E-10  5.0000E-10  5.0000E-10  5.0000E-10  5.0000E-10  5.0000E-10  2.0000E-10  1.0000E-10   0.000    
  15    0.000       0.000      8.0000E-10  8.0000E-10  8.0000E-10  8.0000E-10   0.000       0.000       0.000       0.000    

                  ET RATE =  5.000000E-10

 USING ET EXTINCTION DEPTH FROM PREVIOUS STRESS PERIOD. CURRENT PERIOD IS:       2

 USING EXTINCTION WATER CONTENT FROM PREVIOUS STRESS PERIOD. CURRENT PERIOD IS:       2

 USING AIR ENTRY PRESSURE FROM PREVIOUS STRESS PERIOD. CURRENT PERIOD IS:       2

 USING ROOT PRESSURE HEAD FROM PREVIOUS STRESS PERIOD. CURRENT PERIOD IS:       2

 USING ROOT ACTIVITY FROM PREVIOUS STRESS PERIOD. CURRENT PERIOD IS:       2

 PROCESSING AG STRESS PERIOD DATA

 READING AG STRESS PERIOD DATA

 READING IRRIGATION SEGMENT

 READING IRRIGATION WELL

 READING SUPPLEMENTAL WELL

 END PROCESSING AG STRESS PERIOD DATA OPTIONS
 
 SOLVING FOR HEAD 
                                                   Max.-Head-Change                         Max.-Flux-Residual
  Residual-Control   Outer-Iter.   Inner-Iter.     Column Row Layer    Maximum-Head-Change  Column Row Layer    Maximum-Flux-Residual          L2-NORM 
          0                 1           2             5    4     1       0.4971666878E-02       5    4    1         0.2692751490E+00      0.5607047489E+00
          0                 2           2             5    4     1      -0.4836091039E-03       5    4    1        -0.2692761807E-01      0.5590423108E-01
          0                 3           1             5    4     1       0.3293196819E-04       5    4    1         0.1884933108E-02      0.3898620859E-02

    ------------------------------------------------
       NWT REQUIRED            3 OUTER ITERATIONS 
       AND A TOTAL OF          5 INNER ITERATIONS.
    ------------------------------------------------

 OUTPUT CONTROL FOR STRESS PERIOD    2   TIME STEP    1
    PRINT BUDGET
    PRINT HEAD FOR ALL LAYERS
    SAVE BUDGET
 UBDSV1 SAVING "         STORAGE" ON UNIT 102 AT TIME STEP  1, STRESS PERIOD   2
 UBDSV2 SAVING "   CONSTANT HEAD" ON UNIT 102 AT TIME STEP  1, STRESS PERIOD   2
 UBDSV1 SAVING "FLOW RIGHT FACE " ON UNIT 102 AT TIME STEP  1, STRESS PERIOD   2
 UBDSV1 SAVING "FLOW FRONT FACE " ON UNIT 102 AT TIME STEP  1, STRESS PERIOD   2

  HEAD DEP BOUNDS   PERIOD    2   STEP     1
 BOUNDARY      1   LAYER   1   ROW    13   COL     1   RATE   -0.286571    
 BOUNDARY      2   LAYER   1   ROW    14   COL     9   RATE    0.287757    



 STREAM LISTING     PERIOD      2   STEP        1

 LAYER ROW COL. STREAM  RCH.  FLOW INTO     FLOW TO   FLOW OUT OF   OVRLND.     DIRECT     STREAM       STREAM     STREAM     STREAM   STREAMBED  STREAMBED
                SEG.NO.  NO.  STRM. RCH.    AQUIFER    STRM. RCH.    RUNOFF     PRECIP       ET          HEAD       DEPTH      WIDTH   CONDCTNC.   GRADIENT

   1    1    1     1     1    8.2500E+00  1.3178E-01   8.1182E+00  0.000E+00  0.000E+00  0.000E+00  1.09389E+03  8.424E-01  7.622E+00  3.430E-02  1.281E+00
   1    2    2     1     2    8.1182E+00  2.0240E-01   7.9158E+00  0.000E+00  0.000E+00  0.000E+00  1.08890E+03  8.367E-01  7.536E+00  5.276E-02  1.279E+00
   1    3    3     1     3    7.9158E+00  1.7099E-01   7.7448E+00  0.000E+00  0.000E+00  0.000E+00  1.08325E+03  8.302E-01  7.440E+00  4.464E-02  1.277E+00
   1    3    4     1     4    7.7448E+00  1.5612E-01   7.5887E+00  0.000E+00  0.000E+00  0.000E+00  1.07823E+03  8.244E-01  7.355E+00  4.082E-02  1.275E+00
   1    4    5     2     1    5.5887E+00  2.7178E-01   5.3169E+00  0.000E+00  0.000E+00  0.000E+00  1.07242E+03  4.843E-01  1.200E+01  7.800E-02  1.161E+00
   1    5    6     2     2    5.3169E+00  2.0828E-01   5.1086E+00  0.000E+00  0.000E+00  0.000E+00  1.06698E+03  4.714E-01  1.200E+01  6.000E-02  1.157E+00
   1    6    6     2     3    5.1086E+00  2.0760E-01   4.9010E+00  0.000E+00  0.000E+00  0.000E+00  1.06225E+03  4.600E-01  1.200E+01  6.000E-02  1.153E+00
   1    7    6     2     4    4.9010E+00  2.0691E-01   4.6941E+00  0.000E+00  0.000E+00  0.000E+00  1.05752E+03  4.485E-01  1.200E+01  6.000E-02  1.149E+00
   1    8    6     2     5    4.6941E+00  2.0621E-01   4.4879E+00  0.000E+00  0.000E+00  0.000E+00  1.05280E+03  4.368E-01  1.200E+01  6.000E-02  1.146E+00
   1    3    5     3     1    2.0000E+00  2.8252E-01   1.7175E+00  0.000E+00  0.000E+00  0.000E+00  1.07555E+03  1.909E+00  9.636E+00  7.227E-02  1.955E+00
   1    3    6     3     2    1.7175E+00  2.4905E-01   1.4684E+00  0.000E+00  0.000E+00  0.000E+00  1.07264E+03  1.727E+00  8.909E+00  6.682E-02  1.864E+00
   1    3    7     3     3    1.4684E+00  1.9718E-01   1.2712E+00  0.000E+00  0.000E+00  0.000E+00  1.06987E+03  1.555E+00  8.218E+00  5.547E-02  1.777E+00
   1    4    8     3     4    1.2712E+00  2.2567E-01   1.0456E+00  0.000E+00  0.000E+00  0.000E+00  1.06682E+03  1.364E+00  7.455E+00  6.709E-02  1.682E+00
   1    5    8     3     5    1.0456E+00  1.5790E-01   8.8768E-01  0.000E+00  0.000E+00  0.000E+00  1.06362E+03  1.164E+00  6.655E+00  4.991E-02  1.582E+00
   1    6    8     3     6    8.8768E-01  5.5980E-02   8.3170E-01  0.000E+00  0.000E+00  0.000E+00  1.06158E+03  1.036E+00  6.145E+00  1.844E-02  1.518E+00
   1    5   10     4     1    1.0000E+01  9.0919E-02   9.9091E+00  0.000E+00  0.000E+00  0.000E+00  1.07836E+03  6.368E-01  1.000E+01  2.500E-02  1.212E+00
   1    5    9     4     2    9.9091E+00  1.8158E-01   9.7275E+00  0.000E+00  0.000E+00  0.000E+00  1.07154E+03  6.315E-01  1.000E+01  5.000E-02  1.211E+00
   1    6    8     4     3    9.7275E+00  1.2689E-01   9.6006E+00  0.000E+00  0.000E+00  0.000E+00  1.06381E+03  6.256E-01  1.000E+01  3.500E-02  1.209E+00
   1    6    8     5     1    1.0432E+01  2.2686E-01   1.0205E+01  0.000E+00  0.000E+00  0.000E+00  1.05868E+03  6.790E-01  1.542E+01  6.166E-02  1.226E+00
   1    7    7     5     2    1.0205E+01  2.7894E-01   9.9265E+00  0.000E+00  0.000E+00  0.000E+00  1.05417E+03  6.732E-01  1.519E+01  7.594E-02  1.224E+00
   1    8    7     5     3    9.9265E+00  1.9221E-01   9.7343E+00  0.000E+00  0.000E+00  0.000E+00  1.04992E+03  6.676E-01  1.497E+01  5.241E-02  1.223E+00
   1    8    6     5     4    9.7343E+00  1.3577E-01   9.5985E+00  0.000E+00  0.000E+00  0.000E+00  1.04691E+03  6.637E-01  1.482E+01  3.706E-02  1.221E+00
   1    9    6     6     1    1.4086E+01  2.3167E-01   1.3855E+01  0.000E+00  0.000E+00  0.000E+00  1.04359E+03  8.612E-01  1.200E+01  6.000E-02  1.287E+00
   1   10    7     6     2    1.3855E+01  2.3116E-01   1.3624E+01  0.000E+00  0.000E+00  0.000E+00  1.03903E+03  8.526E-01  1.200E+01  6.000E-02  1.284E+00
   1   11    7     6     3    1.3624E+01  2.3064E-01   1.3393E+01  0.000E+00  0.000E+00  0.000E+00  1.03448E+03  8.440E-01  1.200E+01  6.000E-02  1.281E+00
   1   12    7     6     4    1.3393E+01  2.3012E-01   1.3163E+01  0.000E+00  0.000E+00  0.000E+00  1.02993E+03  8.353E-01  1.200E+01  6.000E-02  1.278E+00
   1   13    7     6     5    1.3163E+01 -1.7911E-02   1.3181E+01  0.000E+00  0.000E+00  0.000E+00  1.02674E+03  8.313E-01  1.200E+01  2.400E-01 -2.488E-02
   1   14    9     7     1    1.5000E+02  1.3652E+00   1.4863E+02  0.000E+00  0.000E+00  0.000E+00  1.03987E+03  2.288E+00  5.529E+01  5.593E-01  8.136E-01
   1   13    8     7     2    1.4863E+02  1.9205E+00   1.4671E+02  0.000E+00  0.000E+00  0.000E+00  1.03478E+03  2.279E+00  5.526E+01  6.148E-01  1.041E+00
   1   13    7     7     3    1.4671E+02  1.6048E+00   1.4511E+02  0.000E+00  0.000E+00  0.000E+00  1.02969E+03  2.269E+00  5.521E+01  5.584E-01  9.579E-01
   1   13    6     8     1    1.5829E+02  9.7525E-01   1.5732E+02  0.000E+00  0.000E+00  0.000E+00  1.02475E+03  2.871E+00  4.163E+01  4.242E-01  7.663E-01
   1   13    5     8     2    1.5732E+02  2.2782E-01   1.5709E+02  0.000E+00  0.000E+00  0.000E+00  1.01849E+03  2.867E+00  4.157E+01  4.236E-01  1.793E-01
   1   13    4     8     3    1.5709E+02 -2.2030E+00   1.5929E+02  0.000E+00  0.000E+00  0.000E+00  1.01225E+03  2.874E+00  4.167E+01  4.246E+00 -1.729E-01
   1   13    3     8     4    1.5929E+02 -3.4860E+00   1.6278E+02  0.000E+00  0.000E+00  0.000E+00  1.00602E+03  2.893E+00  4.195E+01  4.274E+00 -2.718E-01
   1   13    2     8     5    1.6278E+02 -2.4627E+00   1.6524E+02  0.000E+00  0.000E+00  0.000E+00  9.99788E+02  2.913E+00  4.223E+01  4.304E+00 -1.907E-01
   1   13    1     8     6    1.6524E+02 -1.9181E+00   1.6716E+02  0.000E+00  0.000E+00  0.000E+00  9.94802E+02  2.927E+00  4.245E+01  2.595E+00 -2.464E-01
   1    8    6     9     1    0.0000E+00  0.0000E+00   0.0000E+00  0.000E+00  0.000E+00  0.000E+00  1.07875E+03  0.000E+00  4.000E+00  0.000E+00  1.000E+00
   1    8    5     9     2    0.0000E+00  0.0000E+00   0.0000E+00  0.000E+00  0.000E+00  0.000E+00  1.07825E+03  0.000E+00  4.000E+00  0.000E+00  1.000E+00



 UBDSV3 SAVING "           GW ET" ON UNIT  61 AT TIME STEP  1, STRESS PERIOD   2
 UBDSV3 SAVING "    UZF RECHARGE" ON UNIT  61 AT TIME STEP  1, STRESS PERIOD   2
 UBDSV3 SAVING " SURFACE LEAKAGE" ON UNIT  61 AT TIME STEP  1, STRESS PERIOD   2
 UBDSV3 SAVING "       HORT+DUNN" ON UNIT  61 AT TIME STEP  1, STRESS PERIOD   2
 UBDSV3 SAVING "  STORAGE CHANGE" ON UNIT  61 AT TIME STEP  1, STRESS PERIOD   2


UNSATURATED ZONE PACKAGE VOLUMETRIC BUDGET FOR  TIME STEP     1 STRESS PERIOD    2
  ------------------------------------------------------------------------------



     CUMULATIVE VOLUMES      L**3       RATES FOR THIS TIME STEP      L**3/T
     ------------------                 ------------------------

           IN:                                      IN:
           ---                                      ---
        INFILTRATION =      147521.4958          INFILTRATION =           0.8475

          OUT:                                     OUT:
          ----                                     ----
              UZF ET =       65735.6246                UZF ET =           0.7498
        UZF RECHARGE =       73224.0000          UZF RECHARGE =       0.0000E+00

            IN - OUT =        8561.8711              IN - OUT =       9.7664E-02

          STORAGE:                                 STORAGE:
          --------                                 --------
      STORAGE CHANGE =        8561.8722        STORAGE CHANGE =       9.7664E-02

 PERCENT DISCREPANCY IS DIFFERENCE BETWEEN IN-OUT MINUS CHANGE IN STORAGE
 DIVIDED BY THE AVERAGE OF IN AND OUT TIMES 100

 PERCENT DISCREPANCY =           0.00     PERCENT DISCREPANCY =           0.00






 

        AG WELLS          PERIOD    2   STEP   1
 AG WELL      1   LAYER   1   ROW     6   COL     4   RATE     0.00000    
 AG WELL      2   LAYER   1   ROW     6   COL     5   RATE     0.00000    
 AG WELL      3   LAYER   1   ROW     7   COL     4   RATE     0.00000    
 AG WELL      4   LAYER   1   ROW     7   COL     5   RATE     0.00000    
 AG WELL      5   LAYER   1   ROW     8   COL     4   RATE     0.00000    
 AG WELL      6   LAYER   1   ROW     8   COL     5   RATE     0.00000    
 
 

   DIVERSION SEGMENTS     PERIOD    2   STEP   1
 
 

        SW IRRIGATION     PERIOD    2   STEP   1
 
 

        GW IRRIGATION     PERIOD    2   STEP   1
 
1
  VOLUMETRIC BUDGET FOR AGRICULTURAL FIELDS AT  END OF TIME STEP    1, STRESS PERIOD   2
  ------------------------------------------------------------------------------

     CUMULATIVE VOLUMES      L**3       RATES FOR THIS TIME STEP      L**3/T
     ------------------                 ------------------------

           IN:                                      IN:
           ---                                      ---
           AG WELLS      =           0.0000             AG WELLS      =           0.0000
      DIVERSION SEGMENTS =           0.0000        DIVERSION SEGMENTS =           0.0000
           GW IRRIGATION =           0.0000             GW IRRIGATION =           0.0000
           SW IRRIGATION =           0.0000             SW IRRIGATION =           0.0000
        SYSTEM LOSSES GW =           0.0000          SYSTEM LOSSES GW =           0.0000
        SYSTEM LOSSES SW =           0.0000          SYSTEM LOSSES SW =           0.0000

                TOTAL IN =           0.0000                  TOTAL IN =           0.0000

          OUT:                                     OUT:
          ----                                     ----
           AG WELLS      =           0.0000             AG WELLS      =           0.0000
      DIVERSION SEGMENTS =           0.0000        DIVERSION SEGMENTS =           0.0000
           GW IRRIGATION =           0.0000             GW IRRIGATION =           0.0000
           SW IRRIGATION =           0.0000             SW IRRIGATION =           0.0000
        SYSTEM LOSSES GW =           0.0000          SYSTEM LOSSES GW =           0.0000
        SYSTEM LOSSES SW =           0.0000          SYSTEM LOSSES SW =           0.0000

               TOTAL OUT =           0.0000                 TOTAL OUT =           0.0000

                IN - OUT =           0.0000                  IN - OUT =           0.0000

     PERCENT DISCREPANCY =           0.00         PERCENT DISCREPANCY =           0.00



1
              HEAD IN LAYER   1 AT END OF TIME STEP   1 IN STRESS PERIOD    2
  ---------------------------------------------------------------------------

           1       2       3       4       5       6       7       8       9      10
 ...................................................................................
   1  1029.26 1028.36 6999.00 6999.00 6999.00 6999.00 6999.00 6999.00 6999.00 6999.00
   2  1028.45 1027.36 1026.88 6999.00 6999.00 1028.30 1028.48 1028.46 6999.00 6999.00
   3  6999.00 1026.66 1026.39 1026.21 1026.77 1027.48 1028.04 1028.04 6999.00 6999.00
   4  1026.25 1026.11 1025.89 1025.72 1025.72 1025.86 1026.44 1027.58 1027.34 6999.00
   5  1025.90 1025.50 1025.30 1025.20 1025.26 1025.43 1025.71 1026.26 1026.91 1027.46
   6  1025.46 1024.92 1024.71 1024.66 1024.75 1024.99 1025.37 1025.92 1026.38 1027.29
   7  1025.06 1024.16 1023.99 1024.01 1024.15 1024.46 1024.94 1025.38 1025.92 6999.00
   8  6999.00 1023.02 1023.05 1023.19 1023.40 1023.81 1024.28 1024.92 1025.60 6999.00
   9  6999.00 1021.31 1021.62 1022.06 1022.44 1023.05 1023.57 1024.31 1025.54 6999.00
  10  6999.00 1018.82 1019.57 1020.57 1021.33 1022.32 1023.23 1024.33 1025.99 1026.64
  11  6999.00 1014.68 1016.10 1018.53 1020.11 1021.81 1023.34 1025.18 1027.44 6999.00
  12  1001.77 1007.67 1011.76 1015.60 1018.78 1021.71 1024.22 1027.74 1030.81 6999.00
  13   995.54 1000.36 1006.83 1012.77 1017.95 1022.45 1026.81 1031.65 1034.50 6999.00
  14  6999.00 1005.73 1008.80 1013.40 1018.06 1022.43 1027.39 1032.95 1037.43 6999.00
  15  6999.00 6999.00 1012.40 1015.08 1018.50 1021.48 6999.00 6999.00 6999.00 6999.00
1
  VOLUMETRIC BUDGET FOR ENTIRE MODEL AT END OF TIME STEP    1, STRESS PERIOD   2
  ------------------------------------------------------------------------------

     CUMULATIVE VOLUMES      L**3       RATES FOR THIS TIME STEP      L**3/T
     ------------------                 ------------------------

           IN:                                      IN:
           ---                                      ---
             STORAGE     =       65430.3203               STORAGE     =           0.7464
       CONSTANT HEAD     =           0.0000         CONSTANT HEAD     =           0.0000
     HEAD DEP BOUNDS     =       50088.7578       HEAD DEP BOUNDS     =           0.2878
      STREAM LEAKAGE     =     1812343.5000        STREAM LEAKAGE     =          11.1807
        UZF RECHARGE     =       73223.9531          UZF RECHARGE     =           0.0000
               GW ET     =           0.0000                 GW ET     =           0.0000
     SURFACE LEAKAGE     =           0.0000       SURFACE LEAKAGE     =           0.0000
           AG WELLS      =           0.0000             AG WELLS      =           0.0000

                TOTAL IN =     2001086.6250                  TOTAL IN =          12.2148

          OUT:                                     OUT:
          ----                                     ----
             STORAGE     =      161381.9375               STORAGE     =           1.8409
       CONSTANT HEAD     =           0.0000         CONSTANT HEAD     =           0.0000
     HEAD DEP BOUNDS     =       49879.4922       HEAD DEP BOUNDS     =           0.2866
      STREAM LEAKAGE     =     1789852.0000        STREAM LEAKAGE     =          10.0876
        UZF RECHARGE     =           0.0000          UZF RECHARGE     =           0.0000
               GW ET     =           0.0000                 GW ET     =           0.0000
     SURFACE LEAKAGE     =           0.0000       SURFACE LEAKAGE     =           0.0000
           AG WELLS      =           0.0000             AG WELLS      =           0.0000

               TOTAL OUT =     2001113.5000                 TOTAL OUT =          12.2151

                IN - OUT =         -26.8750                  IN - OUT =      -3.0899E-04

     PERCENT DISCREPANCY =          -0.00         PERCENT DISCREPANCY =          -0.00






         TIME SUMMARY AT END OF TIME STEP    1 IN STRESS PERIOD    2
                    SECONDS     MINUTES      HOURS       DAYS        YEARS
                    -----------------------------------------------------------
   TIME STEP LENGTH  87667.      1461.1      24.352      1.0147     2.77799E-03
 STRESS PERIOD TIME  87667.      1461.1      24.352      1.0147     2.77799E-03
         TOTAL TIME 1.74067E+05  2901.1      48.352      2.0147     5.51584E-03
1
 
 SOLVING FOR HEAD 
                                                   Max.-Head-Change                         Max.-Flux-Residual
  Residual-Control   Outer-Iter.   Inner-Iter.     Column Row Layer    Maximum-Head-Change  Column Row Layer    Maximum-Flux-Residual          L2-NORM 
          0                 1           2             5    4     1       0.4771848866E-02       5    4    1         0.2582579971E+00      0.5403926138E+00
          0                 2           2             5    4     1      -0.4641721319E-03       5    4    1        -0.2582589402E-01      0.5389205072E-01
          0                 3           1             5    4     1       0.3160838333E-04       5    4    1         0.1807812460E-02      0.3758911888E-02

    ------------------------------------------------
       NWT REQUIRED            3 OUTER ITERATIONS 
       AND A TOTAL OF          5 INNER ITERATIONS.
    ------------------------------------------------

 NO OUTPUT CONTROL FOR STRESS PERIOD    2   TIME STEP    2
 
 SOLVING FOR HEAD 
                                                   Max.-Head-Change                         Max.-Flux-Residual
  Residual-Control   Outer-Iter.   Inner-Iter.     Column Row Layer    Maximum-Head-Change  Column Row Layer    Maximum-Flux-Residual          L2-NORM 
          0                 1           2             5    4     1       0.4583646614E-02       5    4    1         0.2478846946E+00      0.5216599243E+00
          0                 2           2             5    4     1      -0.4458650693E-03       5    4    1        -0.2478855577E-01      0.5203508354E-01
          0                 3           1             5    4     1       0.3036174166E-04       5    4    1         0.1735198828E-02      0.3630483295E-02

    ------------------------------------------------
       NWT REQUIRED            3 OUTER ITERATIONS 
       AND A TOTAL OF          5 INNER ITERATIONS.
    ------------------------------------------------

 NO OUTPUT CONTROL FOR STRESS PERIOD    2   TIME STEP    3
 
 SOLVING FOR HEAD 
                                                   Max.-Head-Change                         Max.-Flux-Residual
  Residual-Control   Outer-Iter.   Inner-Iter.     Column Row Layer    Maximum-Head-Change  Column Row Layer    Maximum-Flux-Residual          L2-NORM 
          0                 1           2             5    4     1       0.4406074969E-02       5    4    1         0.2381005685E+00      0.5043754330E+00
          0                 2           2             5    4     1      -0.4285920862E-03       5    4    1        -0.2381013595E-01      0.5032141526E-01
          0                 3           1             5    4     1       0.2918551645E-04       5    4    1         0.1666709469E-02      0.3511958027E-02

    ------------------------------------------------
       NWT REQUIRED            3 OUTER ITERATIONS 
       AND A TOTAL OF          5 INNER ITERATIONS.
    ------------------------------------------------

 NO OUTPUT CONTROL FOR STRESS PERIOD    2   TIME STEP    4
 
 SOLVING FOR HEAD 
                                                   Max.-Head-Change                         Max.-Flux-Residual
  Residual-Control   Outer-Iter.   Inner-Iter.     Column Row Layer    Maximum-Head-Change  Column Row Layer    Maximum-Flux-Residual          L2-NORM 
          0                 1           2             5    4     1       0.4238682244E-02       5    4    1         0.2288806993E+00      0.4884228697E+00
          0                 2           2             5    4     1      -0.4123092439E-03       5    4    1        -0.2288814246E-01      0.4873944241E-01
          0                 3           1             5    4     1       0.2807671661E-04       5    4    1         0.1602169973E-02      0.3402466816E-02

    ------------------------------------------------
       NWT REQUIRED            3 OUTER ITERATIONS 
       AND A TOTAL OF          5 INNER ITERATIONS.
    ------------------------------------------------

 NO OUTPUT CONTROL FOR STRESS PERIOD    2   TIME STEP    5
 
 SOLVING FOR HEAD 
                                                   Max.-Head-Change                         Max.-Flux-Residual
  Residual-Control   Outer-Iter.   Inner-Iter.     Column Row Layer    Maximum-Head-Change  Column Row Layer    Maximum-Flux-Residual          L2-NORM 
          0                 1           2             5    4     1       0.4080580036E-02       5    4    1         0.2201755166E+00      0.4736649229E+00
          0                 2           2             5    4     1      -0.3969301254E-03       5    4    1        -0.2201761830E-01      0.4727546707E-01
          0                 3           1             5    4     1       0.2702945702E-04       5    4    1         0.1541233318E-02      0.3300549705E-02

    ------------------------------------------------
       NWT REQUIRED            3 OUTER ITERATIONS 
       AND A TOTAL OF          5 INNER ITERATIONS.
    ------------------------------------------------

 NO OUTPUT CONTROL FOR STRESS PERIOD    2   TIME STEP    6
 
 SOLVING FOR HEAD 
                                                   Max.-Head-Change                         Max.-Flux-Residual
  Residual-Control   Outer-Iter.   Inner-Iter.     Column Row Layer    Maximum-Head-Change  Column Row Layer    Maximum-Flux-Residual          L2-NORM 
          0                 1           2             5    4     1       0.3931653136E-02       5    4    1         0.2119781742E+00      0.4600295403E+00
          0                 2           2             5    4     1      -0.3824435221E-03       5    4    1        -0.2119787871E-01      0.4592215656E-01
          0                 3           1             5    4     1       0.2604297419E-04       5    4    1         0.1483851583E-02      0.3207476688E-02

    ------------------------------------------------
       NWT REQUIRED            3 OUTER ITERATIONS 
       AND A TOTAL OF          5 INNER ITERATIONS.
    ------------------------------------------------

 NO OUTPUT CONTROL FOR STRESS PERIOD    2   TIME STEP    7
 
 SOLVING FOR HEAD 
                                                   Max.-Head-Change                         Max.-Flux-Residual
  Residual-Control   Outer-Iter.   Inner-Iter.     Column Row Layer    Maximum-Head-Change  Column Row Layer    Maximum-Flux-Residual          L2-NORM 
          0                 1           2             5    4     1       0.3790839201E-02       5    4    1         0.2042304030E+00      0.4474016379E+00
          0                 2           2             5    4     1      -0.3687460954E-03       5    4    1        -0.2042309670E-01      0.4466867068E-01
          0                 3           1             5    4     1       0.2511023086E-04       5    4    1         0.1429616859E-02      0.3120145003E-02

    ------------------------------------------------
       NWT REQUIRED            3 OUTER ITERATIONS 
       AND A TOTAL OF          5 INNER ITERATIONS.
    ------------------------------------------------

 NO OUTPUT CONTROL FOR STRESS PERIOD    2   TIME STEP    8
 
 SOLVING FOR HEAD 
                                                   Max.-Head-Change                         Max.-Flux-Residual
  Residual-Control   Outer-Iter.   Inner-Iter.     Column Row Layer    Maximum-Head-Change  Column Row Layer    Maximum-Flux-Residual          L2-NORM 
          0                 1           2             5    4     1       0.3657864785E-02       5    4    1         0.1969163543E+00      0.4356950680E+00
          0                 2           2             5    4     1      -0.3558112468E-03       5    4    1        -0.1969168741E-01      0.4350628254E-01
          0                 3           1             5    4     1       0.2422941649E-04       5    4    1         0.1378418233E-02      0.3039655930E-02

    ------------------------------------------------
       NWT REQUIRED            3 OUTER ITERATIONS 
       AND A TOTAL OF          5 INNER ITERATIONS.
    ------------------------------------------------

 NO OUTPUT CONTROL FOR STRESS PERIOD    2   TIME STEP    9
 
 SOLVING FOR HEAD 
                                                   Max.-Head-Change                         Max.-Flux-Residual
  Residual-Control   Outer-Iter.   Inner-Iter.     Column Row Layer    Maximum-Head-Change  Column Row Layer    Maximum-Flux-Residual          L2-NORM 
          0                 1           2             5    4     1       0.3532230609E-02       5    4    1         0.1900087706E+00      0.4248474512E+00
          0                 2           2             5    4     1      -0.3435904094E-03       5    4    1        -0.1900092505E-01      0.4242879365E-01
          0                 3           1             5    4     1       0.2339722356E-04       5    4    1         0.1330064849E-02      0.2964925330E-02

    ------------------------------------------------
       NWT REQUIRED            3 OUTER ITERATIONS 
       AND A TOTAL OF          5 INNER ITERATIONS.
    ------------------------------------------------

 NO OUTPUT CONTROL FOR STRESS PERIOD    2   TIME STEP   10
 
 SOLVING FOR HEAD 
                                                   Max.-Head-Change                         Max.-Flux-Residual
  Residual-Control   Outer-Iter.   Inner-Iter.     Column Row Layer    Maximum-Head-Change  Column Row Layer    Maximum-Flux-Residual          L2-NORM 
          0                 1           2             5    4     1       0.3413719440E-02       5    4    1         0.1834948456E+00      0.4147734414E+00
          0                 2           2             5    4     1      -0.3320624520E-03       5    4    1        -0.1834952888E-01      0.4142774901E-01
          0                 3           1             5    4     1       0.2261221382E-04       5    4    1         0.1284467161E-02      0.2895291327E-02

    ------------------------------------------------
       NWT REQUIRED            3 OUTER ITERATIONS 
       AND A TOTAL OF          5 INNER ITERATIONS.
    ------------------------------------------------

 NO OUTPUT CONTROL FOR STRESS PERIOD    2   TIME STEP   11
 
 SOLVING FOR HEAD 
                                                   Max.-Head-Change                         Max.-Flux-Residual
  Residual-Control   Outer-Iter.   Inner-Iter.     Column Row Layer    Maximum-Head-Change  Column Row Layer    Maximum-Flux-Residual          L2-NORM 
          0                 1           2             5    4     1       0.3301407998E-02       5    4    1         0.1773240514E+00      0.4054010488E+00
          0                 2           2             5    4     1      -0.3211375633E-03       5    4    1        -0.1773244614E-01      0.4049601151E-01
          0                 3           1             5    4     1       0.2186826997E-04       5    4    1         0.1241271389E-02      0.2830718806E-02

    ------------------------------------------------
       NWT REQUIRED            3 OUTER ITERATIONS 
       AND A TOTAL OF          5 INNER ITERATIONS.
    ------------------------------------------------

 NO OUTPUT CONTROL FOR STRESS PERIOD    2   TIME STEP   12
 
 SOLVING FOR HEAD 
                                                   Max.-Head-Change                         Max.-Flux-Residual
  Residual-Control   Outer-Iter.   Inner-Iter.     Column Row Layer    Maximum-Head-Change  Column Row Layer    Maximum-Flux-Residual          L2-NORM 
          0                 1           2             5    4     1       0.3195383374E-02       5    4    1         0.1715009104E+00      0.3966851202E+00
          0                 2           2             5    4     1      -0.3108242143E-03       5    4    1        -0.1715012899E-01      0.3962953515E-01
          0                 3           1             5    4     1       0.2116597020E-04       5    4    1         0.1200509189E-02      0.2770438961E-02

    ------------------------------------------------
       NWT REQUIRED            3 OUTER ITERATIONS 
       AND A TOTAL OF          5 INNER ITERATIONS.
    ------------------------------------------------

 NO OUTPUT CONTROL FOR STRESS PERIOD    2   TIME STEP   13
 
 SOLVING FOR HEAD 
                                                   Max.-Head-Change                         Max.-Flux-Residual
  Residual-Control   Outer-Iter.   Inner-Iter.     Column Row Layer    Maximum-Head-Change  Column Row Layer    Maximum-Flux-Residual          L2-NORM 
          0                 1           2             5    4     1       0.3094775221E-02       5    4    1         0.1659775448E+00      0.3885592615E+00
          0                 2           2             5    4     1      -0.3010377445E-03       5    4    1        -0.1659778965E-01      0.3882158098E-01
          0                 3           1             5    4     1       0.2049954892E-04       5    4    1         0.1161845449E-02      0.2713995864E-02

    ------------------------------------------------
       NWT REQUIRED            3 OUTER ITERATIONS 
       AND A TOTAL OF          5 INNER ITERATIONS.
    ------------------------------------------------

 NO OUTPUT CONTROL FOR STRESS PERIOD    2   TIME STEP   14
 
 SOLVING FOR HEAD 
                                                   Max.-Head-Change                         Max.-Flux-Residual
  Residual-Control   Outer-Iter.   Inner-Iter.     Column Row Layer    Maximum-Head-Change  Column Row Layer    Maximum-Flux-Residual          L2-NORM 
          0                 1           2             5    4     1       0.2999970496E-02       5    4    1         0.1607742558E+00      0.3809926144E+00
          0                 2           2             5    4     1      -0.2918157933E-03       5    4    1        -0.1607745822E-01      0.3806886680E-01
          0                 3           1             5    4     1       0.1987156858E-04       5    4    1         0.1125422250E-02      0.2662045226E-02

    ------------------------------------------------
       NWT REQUIRED            3 OUTER ITERATIONS 
       AND A TOTAL OF          5 INNER ITERATIONS.
    ------------------------------------------------

 NO OUTPUT CONTROL FOR STRESS PERIOD    2   TIME STEP   15
 
 SOLVING FOR HEAD 
                                                   Max.-Head-Change                         Max.-Flux-Residual
  Residual-Control   Outer-Iter.   Inner-Iter.     Column Row Layer    Maximum-Head-Change  Column Row Layer    Maximum-Flux-Residual          L2-NORM 
          0                 1           2             5    4     1       0.2909894024E-02       5    4    1         0.1558326222E+00      0.3739167242E+00
          0                 2           2             5    4     1      -0.2830537752E-03       5    4    1        -0.1558329251E-01      0.3736475261E-01
          0                 3           1             5    4     1       0.1927490840E-04       5    4    1         0.1090830656E-02      0.2613179974E-02

    ------------------------------------------------
       NWT REQUIRED            3 OUTER ITERATIONS 
       AND A TOTAL OF          5 INNER ITERATIONS.
    ------------------------------------------------

 NO OUTPUT CONTROL FOR STRESS PERIOD    2   TIME STEP   16
 
 SOLVING FOR HEAD 
                                                   Max.-Head-Change                         Max.-Flux-Residual
  Residual-Control   Outer-Iter.   Inner-Iter.     Column Row Layer    Maximum-Head-Change  Column Row Layer    Maximum-Flux-Residual          L2-NORM 
          0                 1           2             5    4     1       0.2824734754E-02       5    4    1         0.1511623018E+00      0.3673108398E+00
          0                 2           2             5    4     1      -0.2747700697E-03       5    4    1        -0.1511625835E-01      0.3670722980E-01
          0                 3           1             5    4     1       0.1871081966E-04       5    4    1         0.1058138277E-02      0.2567322380E-02

    ------------------------------------------------
       NWT REQUIRED            3 OUTER ITERATIONS 
       AND A TOTAL OF          5 INNER ITERATIONS.
    ------------------------------------------------

 NO OUTPUT CONTROL FOR STRESS PERIOD    2   TIME STEP   17
 
 SOLVING FOR HEAD 
                                                   Max.-Head-Change                         Max.-Flux-Residual
  Residual-Control   Outer-Iter.   Inner-Iter.     Column Row Layer    Maximum-Head-Change  Column Row Layer    Maximum-Flux-Residual          L2-NORM 
          0                 1           2             5    4     1       0.2743946317E-02       5    4    1         0.1467338490E+00      0.3611125834E+00
          0                 2           2             5    4     1      -0.2669115301E-03       5    4    1        -0.1467341113E-01      0.3609012200E-01
          0                 3           1             5    4     1       0.1817568317E-04       5    4    1         0.1027138984E-02      0.2524302280E-02

    ------------------------------------------------
       NWT REQUIRED            3 OUTER ITERATIONS 
       AND A TOTAL OF          5 INNER ITERATIONS.
    ------------------------------------------------

 NO OUTPUT CONTROL FOR STRESS PERIOD    2   TIME STEP   18
 
 SOLVING FOR HEAD 
                                                   Max.-Head-Change                         Max.-Flux-Residual
  Residual-Control   Outer-Iter.   Inner-Iter.     Column Row Layer    Maximum-Head-Change  Column Row Layer    Maximum-Flux-Residual          L2-NORM 
          0                 1           2             5    4     1       0.2667267928E-02       5    4    1         0.1425320160E+00      0.3553067073E+00
          0                 2           2             5    4     1      -0.2594527879E-03       5    4    1        -0.1425322602E-01      0.3551210940E-01
          0                 3           1             5    4     1       0.1766777144E-04       5    4    1         0.9977260479E-03      0.2484093864E-02

    ------------------------------------------------
       NWT REQUIRED            3 OUTER ITERATIONS 
       AND A TOTAL OF          5 INNER ITERATIONS.
    ------------------------------------------------

 NO OUTPUT CONTROL FOR STRESS PERIOD    2   TIME STEP   19
 
 SOLVING FOR HEAD 
                                                   Max.-Head-Change                         Max.-Flux-Residual
  Residual-Control   Outer-Iter.   Inner-Iter.     Column Row Layer    Maximum-Head-Change  Column Row Layer    Maximum-Flux-Residual          L2-NORM 
          0                 1           2             5    4     1       0.2594683874E-02       5    4    1         0.1385563632E+00      0.3498584713E+00
          0                 2           2             5    4     1      -0.2523923151E-03       5    4    1        -0.1385565912E-01      0.3496913352E-01
          0                 3           1             5    4     1       0.1718697963E-04       5    4    1         0.9698963459E-03      0.2446047290E-02

    ------------------------------------------------
       NWT REQUIRED            3 OUTER ITERATIONS 
       AND A TOTAL OF          5 INNER ITERATIONS.
    ------------------------------------------------

 NO OUTPUT CONTROL FOR STRESS PERIOD    2   TIME STEP   20
 
 SOLVING FOR HEAD 
                                                   Max.-Head-Change                         Max.-Flux-Residual
  Residual-Control   Outer-Iter.   Inner-Iter.     Column Row Layer    Maximum-Head-Change  Column Row Layer    Maximum-Flux-Residual          L2-NORM 
          0                 1           2             5    4     1       0.2525710318E-02       5    4    1         0.1347799133E+00      0.3447335523E+00
          0                 2           2             5    4     1      -0.2456830467E-03       5    4    1        -0.1347801258E-01      0.3445867527E-01
          0                 3           1             5    4     1       0.1673010413E-04       5    4    1         0.9434610924E-03      0.2410737664E-02

    ------------------------------------------------
       NWT REQUIRED            3 OUTER ITERATIONS 
       AND A TOTAL OF          5 INNER ITERATIONS.
    ------------------------------------------------

 NO OUTPUT CONTROL FOR STRESS PERIOD    2   TIME STEP   21
 
 SOLVING FOR HEAD 
                                                   Max.-Head-Change                         Max.-Flux-Residual
  Residual-Control   Outer-Iter.   Inner-Iter.     Column Row Layer    Maximum-Head-Change  Column Row Layer    Maximum-Flux-Residual          L2-NORM 
          0                 1           2             5    4     1       0.2460369697E-02       5    4    1         0.1312037428E+00      0.3399136851E+00
          0                 2           2             5    4     1      -0.2393271658E-03       5    4    1        -0.1312039414E-01      0.3397835671E-01
          0                 3           1             5    4     1       0.1629729285E-04       5    4    1         0.9184278090E-03      0.2377290751E-02

    ------------------------------------------------
       NWT REQUIRED            3 OUTER ITERATIONS 
       AND A TOTAL OF          5 INNER ITERATIONS.
    ------------------------------------------------

 NO OUTPUT CONTROL FOR STRESS PERIOD    2   TIME STEP   22
 
 SOLVING FOR HEAD 
                                                   Max.-Head-Change                         Max.-Flux-Residual
  Residual-Control   Outer-Iter.   Inner-Iter.     Column Row Layer    Maximum-Head-Change  Column Row Layer    Maximum-Flux-Residual          L2-NORM 
          0                 1           2             5    4     1       0.2398203527E-02       5    4    1         0.1278028525E+00      0.3353733044E+00
          0                 2           2             5    4     1      -0.2332800742E-03       5    4    1        -0.1278030381E-01      0.3352587781E-01
          0                 3           1             5    4     1       0.1588550905E-04       5    4    1         0.8946214930E-03      0.2345740745E-02

    ------------------------------------------------
       NWT REQUIRED            3 OUTER ITERATIONS 
       AND A TOTAL OF          5 INNER ITERATIONS.
    ------------------------------------------------

 NO OUTPUT CONTROL FOR STRESS PERIOD    2   TIME STEP   23
 
 SOLVING FOR HEAD 
                                                   Max.-Head-Change                         Max.-Flux-Residual
  Residual-Control   Outer-Iter.   Inner-Iter.     Column Row Layer    Maximum-Head-Change  Column Row Layer    Maximum-Flux-Residual          L2-NORM 
          0                 1           2             5    4     1       0.2339267473E-02       5    4    1         0.1245796789E+00      0.3310885217E+00
          0                 2           2             5    4     1      -0.2275471861E-03       5    4    1        -0.1245798528E-01      0.3309851874E-01
          0                 3           1             5    4     1       0.1549512122E-04       5    4    1         0.8720591832E-03      0.2315882109E-02

    ------------------------------------------------
       NWT REQUIRED            3 OUTER ITERATIONS 
       AND A TOTAL OF          5 INNER ITERATIONS.
    ------------------------------------------------

 NO OUTPUT CONTROL FOR STRESS PERIOD    2   TIME STEP   24
 
 SOLVING FOR HEAD 
                                                   Max.-Head-Change                         Max.-Flux-Residual
  Residual-Control   Outer-Iter.   Inner-Iter.     Column Row Layer    Maximum-Head-Change  Column Row Layer    Maximum-Flux-Residual          L2-NORM 
          0                 1           2             5    4     1       0.2283365698E-02       5    4    1         0.1215238906E+00      0.3270408771E+00
          0                 2           2             5    4     1      -0.2221094521E-03       5    4    1        -0.1215240536E-01      0.3269509909E-01
          0                 3           1             5    4     1       0.1512483193E-04       5    4    1         0.8506685831E-03      0.2287891361E-02

    ------------------------------------------------
       NWT REQUIRED            3 OUTER ITERATIONS 
       AND A TOTAL OF          5 INNER ITERATIONS.
    ------------------------------------------------

 NO OUTPUT CONTROL FOR STRESS PERIOD    2   TIME STEP   25
 
 SOLVING FOR HEAD 
                                                   Max.-Head-Change                         Max.-Flux-Residual
  Residual-Control   Outer-Iter.   Inner-Iter.     Column Row Layer    Maximum-Head-Change  Column Row Layer    Maximum-Flux-Residual          L2-NORM 
          0                 1           2             5    4     1       0.2230079846E-02       5    4    1         0.1186123882E+00      0.3232037862E+00
          0                 2           2             5    4     1      -0.2169261767E-03       5    4    1        -0.1186125409E-01      0.3231225773E-01
          0                 3           1             5    4     1       0.1477187043E-04       5    4    1         0.8302879903E-03      0.2261016746E-02

    ------------------------------------------------
       NWT REQUIRED            3 OUTER ITERATIONS 
       AND A TOTAL OF          5 INNER ITERATIONS.
    ------------------------------------------------

 NO OUTPUT CONTROL FOR STRESS PERIOD    2   TIME STEP   26
 
 SOLVING FOR HEAD 
                                                   Max.-Head-Change                         Max.-Flux-Residual
  Residual-Control   Outer-Iter.   Inner-Iter.     Column Row Layer    Maximum-Head-Change  Column Row Layer    Maximum-Flux-Residual          L2-NORM 
          0                 1           2             5    4     1       0.2179256357E-02       5    4    1         0.1158365170E+00      0.3195661512E+00
          0                 2           2             5    4     1      -0.2119824240E-03       5    4    1        -0.1158366605E-01      0.3194946474E-01
          0                 3           1             5    4     1       0.1443521974E-04       5    4    1         0.8108568304E-03      0.2235872331E-02

    ------------------------------------------------
       NWT REQUIRED            3 OUTER ITERATIONS 
       AND A TOTAL OF          5 INNER ITERATIONS.
    ------------------------------------------------

 NO OUTPUT CONTROL FOR STRESS PERIOD    2   TIME STEP   27
 
 SOLVING FOR HEAD 
                                                   Max.-Head-Change                         Max.-Flux-Residual
  Residual-Control   Outer-Iter.   Inner-Iter.     Column Row Layer    Maximum-Head-Change  Column Row Layer    Maximum-Flux-Residual          L2-NORM 
          0                 1           2             5    4     1       0.2131225068E-02       5    4    1         0.1132144787E+00      0.3161253915E+00
          0                 2           2             5    4     1      -0.2073102767E-03       5    4    1        -0.1132146134E-01      0.3160621951E-01
          0                 3           1             5    4     1       0.1411706459E-04       5    4    1         0.7925025059E-03      0.2211814484E-02

    ------------------------------------------------
       NWT REQUIRED            3 OUTER ITERATIONS 
       AND A TOTAL OF          5 INNER ITERATIONS.
    ------------------------------------------------

 NO OUTPUT CONTROL FOR STRESS PERIOD    2   TIME STEP   28
 
 SOLVING FOR HEAD 
                                                   Max.-Head-Change                         Max.-Flux-Residual
  Residual-Control   Outer-Iter.   Inner-Iter.     Column Row Layer    Maximum-Head-Change  Column Row Layer    Maximum-Flux-Residual          L2-NORM 
          0                 1           2             5    4     1       0.2085111076E-02       5    4    1         0.1106979657E+00      0.3128491516E+00
          0                 2           2             5    4     1      -0.2028246317E-03       5    4    1        -0.1106980924E-01      0.3127911464E-01
          0                 3           1             5    4     1       0.1381160957E-04       5    4    1         0.7748868904E-03      0.2188973678E-02

    ------------------------------------------------
       NWT REQUIRED            3 OUTER ITERATIONS 
       AND A TOTAL OF          5 INNER ITERATIONS.
    ------------------------------------------------

 NO OUTPUT CONTROL FOR STRESS PERIOD    2   TIME STEP   29
 
 SOLVING FOR HEAD 
                                                   Max.-Head-Change                         Max.-Flux-Residual
  Residual-Control   Outer-Iter.   Inner-Iter.     Column Row Layer    Maximum-Head-Change  Column Row Layer    Maximum-Flux-Residual          L2-NORM 
          0                 1           2             5    4     1       0.2041517049E-02       5    4    1         0.1083201072E+00      0.3097361467E+00
          0                 2           2             5    4     1      -0.1985841105E-03       5    4    1        -0.1083202265E-01      0.3096867111E-01
          0                 3           1             5    4     1       0.1352284593E-04       5    4    1         0.7582417979E-03      0.2167358548E-02

    ------------------------------------------------
       NWT REQUIRED            3 OUTER ITERATIONS 
       AND A TOTAL OF          5 INNER ITERATIONS.
    ------------------------------------------------

 NO OUTPUT CONTROL FOR STRESS PERIOD    2   TIME STEP   30



 STREAM LISTING     PERIOD      2   STEP       30

 LAYER ROW COL. STREAM  RCH.  FLOW INTO     FLOW TO   FLOW OUT OF   OVRLND.     DIRECT     STREAM       STREAM     STREAM     STREAM   STREAMBED  STREAMBED
                SEG.NO.  NO.  STRM. RCH.    AQUIFER    STRM. RCH.    RUNOFF     PRECIP       ET          HEAD       DEPTH      WIDTH   CONDCTNC.   GRADIENT

   1    1    1     1     1    8.2500E+00  1.3178E-01   8.1182E+00  0.000E+00  0.000E+00  0.000E+00  1.09389E+03  8.424E-01  7.622E+00  3.430E-02  1.281E+00
   1    2    2     1     2    8.1182E+00  2.0240E-01   7.9158E+00  0.000E+00  0.000E+00  0.000E+00  1.08890E+03  8.367E-01  7.536E+00  5.276E-02  1.279E+00
   1    3    3     1     3    7.9158E+00  1.7099E-01   7.7448E+00  0.000E+00  0.000E+00  0.000E+00  1.08325E+03  8.302E-01  7.440E+00  4.464E-02  1.277E+00
   1    3    4     1     4    7.7448E+00  1.5612E-01   7.5887E+00  0.000E+00  0.000E+00  0.000E+00  1.07823E+03  8.244E-01  7.355E+00  4.082E-02  1.275E+00
   1    4    5     2     1    5.5887E+00  2.7178E-01   5.3169E+00  0.000E+00  0.000E+00  0.000E+00  1.07242E+03  4.843E-01  1.200E+01  7.800E-02  1.161E+00
   1    5    6     2     2    5.3169E+00  2.0828E-01   5.1087E+00  0.000E+00  0.000E+00  0.000E+00  1.06698E+03  4.714E-01  1.200E+01  6.000E-02  1.157E+00
   1    6    6     2     3    5.1087E+00  2.0760E-01   4.9010E+00  0.000E+00  0.000E+00  0.000E+00  1.06225E+03  4.600E-01  1.200E+01  6.000E-02  1.153E+00
   1    7    6     2     4    4.9010E+00  2.0691E-01   4.6941E+00  0.000E+00  0.000E+00  0.000E+00  1.05752E+03  4.485E-01  1.200E+01  6.000E-02  1.149E+00
   1    8    6     2     5    4.6941E+00  2.0621E-01   4.4879E+00  0.000E+00  0.000E+00  0.000E+00  1.05280E+03  4.368E-01  1.200E+01  6.000E-02  1.146E+00
   1    3    5     3     1    2.0000E+00  2.8252E-01   1.7175E+00  0.000E+00  0.000E+00  0.000E+00  1.07555E+03  1.909E+00  9.636E+00  7.227E-02  1.955E+00
   1    3    6     3     2    1.7175E+00  2.4905E-01   1.4684E+00  0.000E+00  0.000E+00  0.000E+00  1.07264E+03  1.727E+00  8.909E+00  6.682E-02  1.864E+00
   1    3    7     3     3    1.4684E+00  1.9718E-01   1.2712E+00  0.000E+00  0.000E+00  0.000E+00  1.06987E+03  1.555E+00  8.218E+00  5.547E-02  1.777E+00
   1    4    8     3     4    1.2712E+00  2.2567E-01   1.0456E+00  0.000E+00  0.000E+00  0.000E+00  1.06682E+03  1.364E+00  7.455E+00  6.709E-02  1.682E+00
   1    5    8     3     5    1.0456E+00  1.5790E-01   8.8768E-01  0.000E+00  0.000E+00  0.000E+00  1.06362E+03  1.164E+00  6.655E+00  4.991E-02  1.582E+00
   1    6    8     3     6    8.8768E-01  5.5980E-02   8.3170E-01  0.000E+00  0.000E+00  0.000E+00  1.06158E+03  1.036E+00  6.145E+00  1.844E-02  1.518E+00
   1    5   10     4     1    1.0000E+01  9.0919E-02   9.9091E+00  0.000E+00  0.000E+00  0.000E+00  1.07836E+03  6.368E-01  1.000E+01  2.500E-02  1.212E+00
   1    5    9     4     2    9.9091E+00  1.8158E-01   9.7275E+00  0.000E+00  0.000E+00  0.000E+00  1.07154E+03  6.315E-01  1.000E+01  5.000E-02  1.211E+00
   1    6    8     4     3    9.7275E+00  1.2689E-01   9.6006E+00  0.000E+00  0.000E+00  0.000E+00  1.06381E+03  6.256E-01  1.000E+01  3.500E-02  1.209E+00
   1    6    8     5     1    1.0432E+01  2.2686E-01   1.0205E+01  0.000E+00  0.000E+00  0.000E+00  1.05868E+03  6.790E-01  1.542E+01  6.166E-02  1.226E+00
   1    7    7     5     2    1.0205E+01  2.7894E-01   9.9265E+00  0.000E+00  0.000E+00  0.000E+00  1.05417E+03  6.732E-01  1.519E+01  7.594E-02  1.224E+00
   1    8    7     5     3    9.9265E+00  1.9221E-01   9.7343E+00  0.000E+00  0.000E+00  0.000E+00  1.04992E+03  6.676E-01  1.497E+01  5.241E-02  1.223E+00
   1    8    6     5     4    9.7343E+00  1.3577E-01   9.5985E+00  0.000E+00  0.000E+00  0.000E+00  1.04691E+03  6.637E-01  1.482E+01  3.706E-02  1.221E+00
   1    9    6     6     1    1.4086E+01  2.3167E-01   1.3855E+01  0.000E+00  0.000E+00  0.000E+00  1.04359E+03  8.612E-01  1.200E+01  6.000E-02  1.287E+00
   1   10    7     6     2    1.3855E+01  2.3116E-01   1.3624E+01  0.000E+00  0.000E+00  0.000E+00  1.03903E+03  8.526E-01  1.200E+01  6.000E-02  1.284E+00
   1   11    7     6     3    1.3624E+01  2.3064E-01   1.3393E+01  0.000E+00  0.000E+00  0.000E+00  1.03448E+03  8.440E-01  1.200E+01  6.000E-02  1.281E+00
   1   12    7     6     4    1.3393E+01  2.3012E-01   1.3163E+01  0.000E+00  0.000E+00  0.000E+00  1.02993E+03  8.353E-01  1.200E+01  6.000E-02  1.278E+00
   1   13    7     6     5    1.3163E+01 -2.0977E-02   1.3184E+01  0.000E+00  0.000E+00  0.000E+00  1.02674E+03  8.314E-01  1.200E+01  2.400E-01 -2.913E-02
   1   14    9     7     1    1.5000E+02  1.3658E+00   1.4863E+02  0.000E+00  0.000E+00  0.000E+00  1.03987E+03  2.288E+00  5.529E+01  5.593E-01  8.140E-01
   1   13    8     7     2    1.4863E+02  1.9203E+00   1.4671E+02  0.000E+00  0.000E+00  0.000E+00  1.03478E+03  2.279E+00  5.526E+01  6.148E-01  1.041E+00
   1   13    7     7     3    1.4671E+02  1.5976E+00   1.4512E+02  0.000E+00  0.000E+00  0.000E+00  1.02969E+03  2.270E+00  5.521E+01  5.584E-01  9.537E-01
   1   13    6     8     1    1.5830E+02  9.7214E-01   1.5733E+02  0.000E+00  0.000E+00  0.000E+00  1.02475E+03  2.871E+00  4.163E+01  4.242E-01  7.639E-01
   1   13    5     8     2    1.5733E+02  2.2507E-01   1.5710E+02  0.000E+00  0.000E+00  0.000E+00  1.01849E+03  2.867E+00  4.157E+01  4.236E-01  1.771E-01
   1   13    4     8     3    1.5710E+02 -2.2709E+00   1.5937E+02  0.000E+00  0.000E+00  0.000E+00  1.01225E+03  2.874E+00  4.167E+01  4.246E+00 -1.783E-01
   1   13    3     8     4    1.5937E+02 -3.5514E+00   1.6293E+02  0.000E+00  0.000E+00  0.000E+00  1.00602E+03  2.894E+00  4.196E+01  4.276E+00 -2.769E-01
   1   13    2     8     5    1.6293E+02 -2.5395E+00   1.6546E+02  0.000E+00  0.000E+00  0.000E+00  9.99789E+02  2.914E+00  4.225E+01  4.306E+00 -1.966E-01
   1   13    1     8     6    1.6546E+02 -1.9547E+00   1.6742E+02  0.000E+00  0.000E+00  0.000E+00  9.94804E+02  2.929E+00  4.247E+01  2.597E+00 -2.509E-01
   1    8    6     9     1    0.0000E+00  0.0000E+00   0.0000E+00  0.000E+00  0.000E+00  0.000E+00  1.07875E+03  0.000E+00  4.000E+00  0.000E+00  1.000E+00
   1    8    5     9     2    0.0000E+00  0.0000E+00   0.0000E+00  0.000E+00  0.000E+00  0.000E+00  1.07825E+03  0.000E+00  4.000E+00  0.000E+00  1.000E+00





UNSATURATED ZONE PACKAGE VOLUMETRIC BUDGET FOR  TIME STEP    30 STRESS PERIOD    2
  ------------------------------------------------------------------------------



     CUMULATIVE VOLUMES      L**3       RATES FOR THIS TIME STEP      L**3/T
     ------------------                 ------------------------

           IN:                                      IN:
           ---                                      ---
        INFILTRATION =     2302148.8727          INFILTRATION =           0.8475

          OUT:                                     OUT:
          ----                                     ----
              UZF ET =     1972485.7128                UZF ET =           0.7500
        UZF RECHARGE =       73224.0000          UZF RECHARGE =       0.0000E+00

            IN - OUT =      256439.1600              IN - OUT =       9.7500E-02

          STORAGE:                                 STORAGE:
          --------                                 --------
      STORAGE CHANGE =      256439.1819        STORAGE CHANGE =       9.7500E-02

 PERCENT DISCREPANCY IS DIFFERENCE BETWEEN IN-OUT MINUS CHANGE IN STORAGE
 DIVIDED BY THE AVERAGE OF IN AND OUT TIMES 100

 PERCENT DISCREPANCY =          -0.00     PERCENT DISCREPANCY =           0.00






1
  VOLUMETRIC BUDGET FOR AGRICULTURAL FIELDS AT  END OF TIME STEP   30, STRESS PERIOD   2
  ------------------------------------------------------------------------------

     CUMULATIVE VOLUMES      L**3       RATES FOR THIS TIME STEP      L**3/T
     ------------------                 ------------------------

           IN:                                      IN:
           ---                                      ---
           AG WELLS      =           0.0000             AG WELLS      =           0.0000
      DIVERSION SEGMENTS =           0.0000        DIVERSION SEGMENTS =           0.0000
           GW IRRIGATION =           0.0000             GW IRRIGATION =           0.0000
           SW IRRIGATION =           0.0000             SW IRRIGATION =           0.0000
        SYSTEM LOSSES GW =           0.0000          SYSTEM LOSSES GW =           0.0000
        SYSTEM LOSSES SW =           0.0000          SYSTEM LOSSES SW =           0.0000

                TOTAL IN =           0.0000                  TOTAL IN =           0.0000

          OUT:                                     OUT:
          ----                                     ----
           AG WELLS      =           0.0000             AG WELLS      =           0.0000
      DIVERSION SEGMENTS =           0.0000        DIVERSION SEGMENTS =           0.0000
           GW IRRIGATION =           0.0000             GW IRRIGATION =           0.0000
           SW IRRIGATION =           0.0000             SW IRRIGATION =           0.0000
        SYSTEM LOSSES GW =           0.0000          SYSTEM LOSSES GW =           0.0000
        SYSTEM LOSSES SW =           0.0000          SYSTEM LOSSES SW =           0.0000

               TOTAL OUT =           0.0000                 TOTAL OUT =           0.0000

                IN - OUT =           0.0000                  IN - OUT =           0.0000

     PERCENT DISCREPANCY =           0.00         PERCENT DISCREPANCY =           0.00



1
  VOLUMETRIC BUDGET FOR ENTIRE MODEL AT END OF TIME STEP   30, STRESS PERIOD   2
  ------------------------------------------------------------------------------

     CUMULATIVE VOLUMES      L**3       RATES FOR THIS TIME STEP      L**3/T
     ------------------                 ------------------------

           IN:                                      IN:
           ---                                      ---
             STORAGE     =     1698293.2500               STORAGE     =           0.5858
       CONSTANT HEAD     =           0.0000         CONSTANT HEAD     =           0.0000
     HEAD DEP BOUNDS     =      781723.8750       HEAD DEP BOUNDS     =           0.2878
      STREAM LEAKAGE     =    30218964.0000        STREAM LEAKAGE     =          11.1681
        UZF RECHARGE     =       73223.9531          UZF RECHARGE     =           0.0000
               GW ET     =           0.0000                 GW ET     =           0.0000
     SURFACE LEAKAGE     =           0.0000       SURFACE LEAKAGE     =           0.0000
           AG WELLS      =           0.0000             AG WELLS      =           0.0000

                TOTAL IN =    32772204.0000                  TOTAL IN =          12.0417

          OUT:                                     OUT:
          ----                                     ----
             STORAGE     =     4124340.2500               STORAGE     =           1.4173
       CONSTANT HEAD     =           0.0000         CONSTANT HEAD     =           0.0000
     HEAD DEP BOUNDS     =      779352.1875       HEAD DEP BOUNDS     =           0.2872
      STREAM LEAKAGE     =    27869200.0000        STREAM LEAKAGE     =          10.3374
        UZF RECHARGE     =           0.0000          UZF RECHARGE     =           0.0000
               GW ET     =           0.0000                 GW ET     =           0.0000
     SURFACE LEAKAGE     =           0.0000       SURFACE LEAKAGE     =           0.0000
           AG WELLS      =           0.0000             AG WELLS      =           0.0000

               TOTAL OUT =    32772892.0000                 TOTAL OUT =          12.0419

                IN - OUT =        -688.0000                  IN - OUT =      -2.3460E-04

     PERCENT DISCREPANCY =          -0.00         PERCENT DISCREPANCY =          -0.00






         TIME SUMMARY AT END OF TIME STEP   30 IN STRESS PERIOD    2
                    SECONDS     MINUTES      HOURS       DAYS        YEARS
                    -----------------------------------------------------------
   TIME STEP LENGTH  87667.      1461.1      24.352      1.0147     2.77799E-03
 STRESS PERIOD TIME 2.63000E+06  43833.      730.56      30.440     8.33397E-02
         TOTAL TIME 2.71640E+06  45273.      754.56      31.440     8.60775E-02
1
1
                            STRESS PERIOD NO.    3, LENGTH =   2630000.    
                            -----------------------------------------------

                              NUMBER OF TIME STEPS =    30

                               MULTIPLIER FOR DELT =     1.000

                            INITIAL TIME STEP SIZE =   87666.66    

 REUSING NON-PARAMETER GHB CELLS FROM LAST STRESS PERIOD

      2 GHB CELLS

 REUSING STREAM SEGMENT DATA FROM LAST STRESS PERIOD



            AREAL INFILTRATION RATE
 READING ON UNIT   19 WITH FORMAT: (FREE)              

            1           2           3           4           5           6           7           8           9          10
 ........................................................................................................................
   1   1.0000E-10  2.0000E-10   0.000       0.000       0.000       0.000       0.000       0.000       0.000       0.000    
   2   2.0000E-10  1.0000E-10  2.0000E-10   0.000       0.000      8.0000E-10  8.0000E-10  5.0000E-10   0.000       0.000    
   3    0.000      5.0000E-10  1.0000E-10  1.0000E-10  8.0000E-10  8.0000E-10  5.0000E-10  5.0000E-10   0.000       0.000    
   4   8.0000E-10  5.0000E-10  1.0000E-10  1.0000E-10  1.0000E-10  1.0000E-10  1.0000E-10  1.0000E-10  2.0000E-10   0.000    
   5   8.0000E-10  5.0000E-10  1.0000E-10  1.0000E-10  1.0000E-10  1.0000E-10  1.0000E-10  1.0000E-10  1.0000E-10  1.0000E-10
   6   8.0000E-10  5.0000E-10  5.0000E-10  2.0000E-10  2.0000E-10  1.0000E-10  1.0000E-10  1.0000E-10  1.0000E-10  5.0000E-10
   7   8.0000E-10  5.0000E-10  5.0000E-10  2.0000E-10  2.0000E-10  1.0000E-10  1.0000E-10  2.0000E-10  2.0000E-10   0.000    
   8    0.000      5.0000E-10  5.0000E-10  2.0000E-10  2.0000E-10  1.0000E-10  1.0000E-10  2.0000E-10  5.0000E-10   0.000    
   9    0.000      5.0000E-10  5.0000E-10  2.0000E-10  2.0000E-10  1.0000E-10  1.0000E-10  2.0000E-10  5.0000E-10   0.000    
  10    0.000      5.0000E-10  5.0000E-10  2.0000E-10  2.0000E-10  1.0000E-10  1.0000E-10  2.0000E-10  5.0000E-10  8.0000E-10
  11    0.000      1.0000E-10  1.0000E-10  1.0000E-10  1.0000E-10  1.0000E-10  1.0000E-10  2.0000E-10  5.0000E-10   0.000    
  12   1.0000E-10  1.0000E-10  1.0000E-10  1.0000E-10  1.0000E-10  1.0000E-10  1.0000E-10  1.0000E-10  2.0000E-10   0.000    
  13   1.0000E-10  1.0000E-10  2.0000E-10  2.0000E-10  2.0000E-10  2.0000E-10  2.0000E-10  1.0000E-10  1.0000E-10   0.000    
  14    0.000      2.0000E-10  5.0000E-10  5.0000E-10  5.0000E-10  5.0000E-10  5.0000E-10  2.0000E-10  1.0000E-10   0.000    
  15    0.000       0.000      8.0000E-10  8.0000E-10  8.0000E-10  8.0000E-10   0.000       0.000       0.000       0.000    

                  ET RATE =  5.000000E-10

 USING ET EXTINCTION DEPTH FROM PREVIOUS STRESS PERIOD. CURRENT PERIOD IS:       3

 USING EXTINCTION WATER CONTENT FROM PREVIOUS STRESS PERIOD. CURRENT PERIOD IS:       3

 USING AIR ENTRY PRESSURE FROM PREVIOUS STRESS PERIOD. CURRENT PERIOD IS:       3

 USING ROOT PRESSURE HEAD FROM PREVIOUS STRESS PERIOD. CURRENT PERIOD IS:       3

 USING ROOT ACTIVITY FROM PREVIOUS STRESS PERIOD. CURRENT PERIOD IS:       3

 PROCESSING AG STRESS PERIOD DATA

 READING AG STRESS PERIOD DATA

 READING IRRIGATION SEGMENT

 READING IRRIGATION WELL

 READING SUPPLEMENTAL WELL

 END PROCESSING AG STRESS PERIOD DATA OPTIONS
 
 SOLVING FOR HEAD 
                                                   Max.-Head-Change                         Max.-Flux-Residual
  Residual-Control   Outer-Iter.   Inner-Iter.     Column Row Layer    Maximum-Head-Change  Column Row Layer    Maximum-Flux-Residual          L2-NORM 
          0                 1           2             2    2     1       0.2525011357E-02       2    2    1         0.1319005112E+00      0.4039561040E+00
          0                 2           2             2    2     1      -0.2456150129E-03       2    2    1        -0.1319006855E-01      0.4181694327E-01
          0                 3           1             2    2     1       0.1672546936E-04       2    2    1         0.9233050379E-03      0.2906724711E-02

    ------------------------------------------------
       NWT REQUIRED            3 OUTER ITERATIONS 
       AND A TOTAL OF          5 INNER ITERATIONS.
    ------------------------------------------------

 NO OUTPUT CONTROL FOR STRESS PERIOD    3   TIME STEP    1
 
 SOLVING FOR HEAD 
                                                   Max.-Head-Change                         Max.-Flux-Residual
  Residual-Control   Outer-Iter.   Inner-Iter.     Column Row Layer    Maximum-Head-Change  Column Row Layer    Maximum-Flux-Residual          L2-NORM 
          0                 1           2             2    2     1       0.3324231131E-02       2    2    1         0.1736614038E+00      0.5146754142E+00
          0                 2           2             2    2     1      -0.3233575028E-03       2    2    1        -0.1736617106E-01      0.5102024440E-01
          0                 3           1             2    2     1       0.2201944266E-04       2    2    1         0.1215632199E-02      0.3530081504E-02

    ------------------------------------------------
       NWT REQUIRED            3 OUTER ITERATIONS 
       AND A TOTAL OF          5 INNER ITERATIONS.
    ------------------------------------------------

 NO OUTPUT CONTROL FOR STRESS PERIOD    3   TIME STEP    2
 
 SOLVING FOR HEAD 
                                                   Max.-Head-Change                         Max.-Flux-Residual
  Residual-Control   Outer-Iter.   Inner-Iter.     Column Row Layer    Maximum-Head-Change  Column Row Layer    Maximum-Flux-Residual          L2-NORM 
          0                 1           2             2    2     1       0.3301480467E-02       2    2    1         0.1724651001E+00      0.4998439178E+00
          0                 2           2             2    2     1      -0.3211444747E-03       2    2    1        -0.1724654009E-01      0.4958929944E-01
          0                 3           1             2    2     1       0.2186874379E-04       2    2    1         0.1207258049E-02      0.3434935461E-02

    ------------------------------------------------
       NWT REQUIRED            3 OUTER ITERATIONS 
       AND A TOTAL OF          5 INNER ITERATIONS.
    ------------------------------------------------

 NO OUTPUT CONTROL FOR STRESS PERIOD    3   TIME STEP    3
 
 SOLVING FOR HEAD 
                                                   Max.-Head-Change                         Max.-Flux-Residual
  Residual-Control   Outer-Iter.   Inner-Iter.     Column Row Layer    Maximum-Head-Change  Column Row Layer    Maximum-Flux-Residual          L2-NORM 
          0                 1           2             2    2     1       0.3279131818E-02       2    2    1         0.1712899373E+00      0.4865714186E+00
          0                 2           2             2    2     1      -0.3189705518E-03       2    2    1        -0.1712902324E-01      0.4830887629E-01
          0                 3           1             2    2     1       0.2172070774E-04       2    2    1         0.1199031861E-02      0.3349499608E-02

    ------------------------------------------------
       NWT REQUIRED            3 OUTER ITERATIONS 
       AND A TOTAL OF          5 INNER ITERATIONS.
    ------------------------------------------------

 NO OUTPUT CONTROL FOR STRESS PERIOD    3   TIME STEP    4
 
 SOLVING FOR HEAD 
                                                   Max.-Head-Change                         Max.-Flux-Residual
  Residual-Control   Outer-Iter.   Inner-Iter.     Column Row Layer    Maximum-Head-Change  Column Row Layer    Maximum-Flux-Residual          L2-NORM 
          0                 1           2             2    2     1       0.3257010121E-02       2    2    1         0.1701267478E+00      0.4746967975E+00
          0                 2           2             2    2     1      -0.3168187054E-03       2    2    1        -0.1701270371E-01      0.4716328635E-01
          0                 3           1             2    2     1       0.2157417503E-04       2    2    1         0.1190889507E-02      0.3270890237E-02

    ------------------------------------------------
       NWT REQUIRED            3 OUTER ITERATIONS 
       AND A TOTAL OF          5 INNER ITERATIONS.
    ------------------------------------------------

 NO OUTPUT CONTROL FOR STRESS PERIOD    3   TIME STEP    5
 
 SOLVING FOR HEAD 
                                                   Max.-Head-Change                         Max.-Flux-Residual
  Residual-Control   Outer-Iter.   Inner-Iter.     Column Row Layer    Maximum-Head-Change  Column Row Layer    Maximum-Flux-Residual          L2-NORM 
          0                 1           2             2    2     1       0.3235280851E-02       2    2    1         0.1689841965E+00      0.4640265425E+00
          0                 2           2             2    2     1      -0.3147050320E-03       2    2    1        -0.1689844808E-01      0.4613312208E-01
          0                 3           1             2    2     1       0.2143024171E-04       2    2    1         0.1182891598E-02      0.3204696499E-02

    ------------------------------------------------
       NWT REQUIRED            3 OUTER ITERATIONS 
       AND A TOTAL OF          5 INNER ITERATIONS.
    ------------------------------------------------

 NO OUTPUT CONTROL FOR STRESS PERIOD    3   TIME STEP    6
 
 SOLVING FOR HEAD 
                                                   Max.-Head-Change                         Max.-Flux-Residual
  Residual-Control   Outer-Iter.   Inner-Iter.     Column Row Layer    Maximum-Head-Change  Column Row Layer    Maximum-Flux-Residual          L2-NORM 
          0                 1           2             2    2     1       0.3213768742E-02       2    2    1         0.1678531209E+00      0.4544395675E+00
          0                 2           2             2    2     1      -0.3126124822E-03       2    2    1        -0.1678533996E-01      0.4520717740E-01
          0                 3           1             2    2     1       0.2128774736E-04       2    2    1         0.1174974052E-02      0.3142849220E-02

    ------------------------------------------------
       NWT REQUIRED            3 OUTER ITERATIONS 
       AND A TOTAL OF          5 INNER ITERATIONS.
    ------------------------------------------------

 NO OUTPUT CONTROL FOR STRESS PERIOD    3   TIME STEP    7
 
 SOLVING FOR HEAD 
                                                   Max.-Head-Change                         Max.-Flux-Residual
  Residual-Control   Outer-Iter.   Inner-Iter.     Column Row Layer    Maximum-Head-Change  Column Row Layer    Maximum-Flux-Residual          L2-NORM 
          0                 1           2             2    2     1       0.3192554582E-02       2    2    1         0.1667377406E+00      0.4457937575E+00
          0                 2           2             2    2     1      -0.3105489156E-03       2    2    1        -0.1667380143E-01      0.4437312582E-01
          0                 3           1             2    2     1       0.2114722592E-04       2    2    1         0.1167166361E-02      0.3087989836E-02

    ------------------------------------------------
       NWT REQUIRED            3 OUTER ITERATIONS 
       AND A TOTAL OF          5 INNER ITERATIONS.
    ------------------------------------------------

 NO OUTPUT CONTROL FOR STRESS PERIOD    3   TIME STEP    8
 
 SOLVING FOR HEAD 
                                                   Max.-Head-Change                         Max.-Flux-Residual
  Residual-Control   Outer-Iter.   Inner-Iter.     Column Row Layer    Maximum-Head-Change  Column Row Layer    Maximum-Flux-Residual          L2-NORM 
          0                 1           2             2    2     1       0.3171548839E-02       2    2    1         0.1656333726E+00      0.4379820131E+00
          0                 2           2             2    2     1      -0.3085056218E-03       2    2    1        -0.1656336413E-01      0.4361531313E-01
          0                 3           1             2    2     1       0.2100808546E-04       2    2    1         0.1159435746E-02      0.3036168713E-02

    ------------------------------------------------
       NWT REQUIRED            3 OUTER ITERATIONS 
       AND A TOTAL OF          5 INNER ITERATIONS.
    ------------------------------------------------

 NO OUTPUT CONTROL FOR STRESS PERIOD    3   TIME STEP    9
 
 SOLVING FOR HEAD 
                                                   Max.-Head-Change                         Max.-Flux-Residual
  Residual-Control   Outer-Iter.   Inner-Iter.     Column Row Layer    Maximum-Head-Change  Column Row Layer    Maximum-Flux-Residual          L2-NORM 
          0                 1           2             2    2     1       0.3150918025E-02       2    2    1         0.1645486827E+00      0.4309014473E+00
          0                 2           2             2    2     1      -0.3064987986E-03       2    2    1        -0.1645489464E-01      0.4292970047E-01
          0                 3           1             2    2     1       0.2087142819E-04       2    2    1         0.1151842872E-02      0.2990345713E-02

    ------------------------------------------------
       NWT REQUIRED            3 OUTER ITERATIONS 
       AND A TOTAL OF          5 INNER ITERATIONS.
    ------------------------------------------------

 NO OUTPUT CONTROL FOR STRESS PERIOD    3   TIME STEP   10
 
 SOLVING FOR HEAD 
                                                   Max.-Head-Change                         Max.-Flux-Residual
  Residual-Control   Outer-Iter.   Inner-Iter.     Column Row Layer    Maximum-Head-Change  Column Row Layer    Maximum-Flux-Residual          L2-NORM 
          0                 1           2             2    2     1       0.3130486817E-02       2    2    1         0.1634745604E+00      0.4244596632E+00
          0                 2           2             2    2     1      -0.3045113916E-03       2    2    1        -0.1634748192E-01      0.4230497152E-01
          0                 3           1             2    2     1       0.2073609344E-04       2    2    1         0.1144323989E-02      0.2948688901E-02

    ------------------------------------------------
       NWT REQUIRED            3 OUTER ITERATIONS 
       AND A TOTAL OF          5 INNER ITERATIONS.
    ------------------------------------------------

 NO OUTPUT CONTROL FOR STRESS PERIOD    3   TIME STEP   11
 
 SOLVING FOR HEAD 
                                                   Max.-Head-Change                         Max.-Flux-Residual
  Residual-Control   Outer-Iter.   Inner-Iter.     Column Row Layer    Maximum-Head-Change  Column Row Layer    Maximum-Flux-Residual          L2-NORM 
          0                 1           2             2    2     1       0.3110421577E-02       2    2    1         0.1624196598E+00      0.4185889141E+00
          0                 2           2             2    2     1      -0.3025595840E-03       2    2    1        -0.1624199138E-01      0.4173522698E-01
          0                 3           1             2    2     1       0.2060318246E-04       2    2    1         0.1136939658E-02      0.2910188975E-02

    ------------------------------------------------
       NWT REQUIRED            3 OUTER ITERATIONS 
       AND A TOTAL OF          5 INNER ITERATIONS.
    ------------------------------------------------

 NO OUTPUT CONTROL FOR STRESS PERIOD    3   TIME STEP   12
 
 SOLVING FOR HEAD 
                                                   Max.-Head-Change                         Max.-Flux-Residual
  Residual-Control   Outer-Iter.   Inner-Iter.     Column Row Layer    Maximum-Head-Change  Column Row Layer    Maximum-Flux-Residual          L2-NORM 
          0                 1           2             2    2     1       0.3090547437E-02       2    2    1         0.1613748618E+00      0.4132170528E+00
          0                 2           2             2    2     1      -0.3006263653E-03       2    2    1        -0.1613751113E-01      0.4121296719E-01
          0                 3           1             2    2     1       0.2047153721E-04       2    2    1         0.1129626030E-02      0.2874981966E-02

    ------------------------------------------------
       NWT REQUIRED            3 OUTER ITERATIONS 
       AND A TOTAL OF          5 INNER ITERATIONS.
    ------------------------------------------------

 NO OUTPUT CONTROL FOR STRESS PERIOD    3   TIME STEP   13
 
 SOLVING FOR HEAD 
                                                   Max.-Head-Change                         Max.-Flux-Residual
  Residual-Control   Outer-Iter.   Inner-Iter.     Column Row Layer    Maximum-Head-Change  Column Row Layer    Maximum-Flux-Residual          L2-NORM 
          0                 1           2             2    2     1       0.3070945672E-02       2    2    1         0.1603444083E+00      0.4082878642E+00
          0                 2           2             2    2     1      -0.2987196410E-03       2    2    1        -0.1603446533E-01      0.4073316193E-01
          0                 3           1             2    2     1       0.2034169636E-04       2    2    1         0.1122412824E-02      0.2842122409E-02

    ------------------------------------------------
       NWT REQUIRED            3 OUTER ITERATIONS 
       AND A TOTAL OF          5 INNER ITERATIONS.
    ------------------------------------------------

 NO OUTPUT CONTROL FOR STRESS PERIOD    3   TIME STEP   14
 
 SOLVING FOR HEAD 
                                                   Max.-Head-Change                         Max.-Flux-Residual
  Residual-Control   Outer-Iter.   Inner-Iter.     Column Row Layer    Maximum-Head-Change  Column Row Layer    Maximum-Flux-Residual          L2-NORM 
          0                 1           2             2    2     1       0.3051611998E-02       2    2    1         0.1593280771E+00      0.4037432855E+00
          0                 2           2             2    2     1      -0.2968389952E-03       2    2    1        -0.1593283178E-01      0.4029055436E-01
          0                 3           1             2    2     1       0.2021363175E-04       2    2    1         0.1115298474E-02      0.2812665501E-02

    ------------------------------------------------
       NWT REQUIRED            3 OUTER ITERATIONS 
       AND A TOTAL OF          5 INNER ITERATIONS.
    ------------------------------------------------

 NO OUTPUT CONTROL FOR STRESS PERIOD    3   TIME STEP   15
 
 SOLVING FOR HEAD 
                                                   Max.-Head-Change                         Max.-Flux-Residual
  Residual-Control   Outer-Iter.   Inner-Iter.     Column Row Layer    Maximum-Head-Change  Column Row Layer    Maximum-Flux-Residual          L2-NORM 
          0                 1           2             2    2     1       0.3032542649E-02       2    2    1         0.1583256463E+00      0.3995411777E+00
          0                 2           2             2    2     1      -0.2949840610E-03       2    2    1        -0.1583258826E-01      0.3988016463E-01
          0                 3           1             2    2     1       0.2008731757E-04       2    2    1         0.1108281427E-02      0.2784963619E-02

    ------------------------------------------------
       NWT REQUIRED            3 OUTER ITERATIONS 
       AND A TOTAL OF          5 INNER ITERATIONS.
    ------------------------------------------------

 NO OUTPUT CONTROL FOR STRESS PERIOD    3   TIME STEP   16
 
 SOLVING FOR HEAD 
                                                   Max.-Head-Change                         Max.-Flux-Residual
  Residual-Control   Outer-Iter.   Inner-Iter.     Column Row Layer    Maximum-Head-Change  Column Row Layer    Maximum-Flux-Residual          L2-NORM 
          0                 1           2             2    2     1       0.3013648210E-02       2    2    1         0.1573324837E+00      0.3956471269E+00
          0                 2           2             2    2     1      -0.2931461416E-03       2    2    1        -0.1573327161E-01      0.3949936634E-01
          0                 3           1             2    2     1       0.1996216214E-04       2    2    1         0.1101329276E-02      0.2758858441E-02

    ------------------------------------------------
       NWT REQUIRED            3 OUTER ITERATIONS 
       AND A TOTAL OF          5 INNER ITERATIONS.
    ------------------------------------------------

 NO OUTPUT CONTROL FOR STRESS PERIOD    3   TIME STEP   17
 
 SOLVING FOR HEAD 
                                                   Max.-Head-Change                         Max.-Flux-Residual
  Residual-Control   Outer-Iter.   Inner-Iter.     Column Row Layer    Maximum-Head-Change  Column Row Layer    Maximum-Flux-Residual          L2-NORM 
          0                 1           2             2    2     1       0.2995086685E-02       2    2    1         0.1563567839E+00      0.3920195151E+00
          0                 2           2             2    2     1      -0.2913406047E-03       2    2    1        -0.1563570120E-01      0.3914490014E-01
          0                 3           1             2    2     1       0.1983921179E-04       2    2    1         0.1094499337E-02      0.2735070227E-02

    ------------------------------------------------
       NWT REQUIRED            3 OUTER ITERATIONS 
       AND A TOTAL OF          5 INNER ITERATIONS.
    ------------------------------------------------

 NO OUTPUT CONTROL FOR STRESS PERIOD    3   TIME STEP   18
 
 SOLVING FOR HEAD 
                                                   Max.-Head-Change                         Max.-Flux-Residual
  Residual-Control   Outer-Iter.   Inner-Iter.     Column Row Layer    Maximum-Head-Change  Column Row Layer    Maximum-Flux-Residual          L2-NORM 
          0                 1           2             2    2     1       0.2976701687E-02       2    2    1         0.1553904308E+00      0.3886479529E+00
          0                 2           2             2    2     1      -0.2895522397E-03       2    2    1        -0.1553906548E-01      0.3881409150E-01
          0                 3           1             2    2     1       0.1971743109E-04       2    2    1         0.1087734852E-02      0.2712477527E-02

    ------------------------------------------------
       NWT REQUIRED            3 OUTER ITERATIONS 
       AND A TOTAL OF          5 INNER ITERATIONS.
    ------------------------------------------------

 NO OUTPUT CONTROL FOR STRESS PERIOD    3   TIME STEP   19
 
 SOLVING FOR HEAD 
                                                   Max.-Head-Change                         Max.-Flux-Residual
  Residual-Control   Outer-Iter.   Inner-Iter.     Column Row Layer    Maximum-Head-Change  Column Row Layer    Maximum-Flux-Residual          L2-NORM 
          0                 1           2             2    2     1       0.2958565986E-02       2    2    1         0.1544371877E+00      0.3854777616E+00
          0                 2           2             2    2     1      -0.2877881247E-03       2    2    1        -0.1544374080E-01      0.3850192949E-01
          0                 3           1             2    2     1       0.1959730141E-04       2    2    1         0.1081062114E-02      0.2689673866E-02

    ------------------------------------------------
       NWT REQUIRED            3 OUTER ITERATIONS 
       AND A TOTAL OF          5 INNER ITERATIONS.
    ------------------------------------------------

 NO OUTPUT CONTROL FOR STRESS PERIOD    3   TIME STEP   20
 
 SOLVING FOR HEAD 
                                                   Max.-Head-Change                         Max.-Flux-Residual
  Residual-Control   Outer-Iter.   Inner-Iter.     Column Row Layer    Maximum-Head-Change  Column Row Layer    Maximum-Flux-Residual          L2-NORM 
          0                 1           2             2    2     1       0.2940675688E-02       2    2    1         0.1534968704E+00      0.3824967673E+00
          0                 2           2             2    2     1      -0.2860478810E-03       2    2    1        -0.1534970870E-01      0.3821053852E-01
          0                 3           1             2    2     1       0.1947879698E-04       2    2    1         0.1074479866E-02      0.2671363531E-02

    ------------------------------------------------
       NWT REQUIRED            3 OUTER ITERATIONS 
       AND A TOTAL OF          5 INNER ITERATIONS.
    ------------------------------------------------

 NO OUTPUT CONTROL FOR STRESS PERIOD    3   TIME STEP   21
 
 SOLVING FOR HEAD 
                                                   Max.-Head-Change                         Max.-Flux-Residual
  Residual-Control   Outer-Iter.   Inner-Iter.     Column Row Layer    Maximum-Head-Change  Column Row Layer    Maximum-Flux-Residual          L2-NORM 
          0                 1           2             2    2     1       0.2923027038E-02       2    2    1         0.1525692770E+00      0.3797026233E+00
          0                 2           2             2    2     1      -0.2843311427E-03       2    2    1        -0.1525694898E-01      0.3793538048E-01
          0                 3           1             2    2     1       0.1936189363E-04       2    2    1         0.1067986683E-02      0.2652299631E-02

    ------------------------------------------------
       NWT REQUIRED            3 OUTER ITERATIONS 
       AND A TOTAL OF          5 INNER ITERATIONS.
    ------------------------------------------------

 NO OUTPUT CONTROL FOR STRESS PERIOD    3   TIME STEP   22
 
 SOLVING FOR HEAD 
                                                   Max.-Head-Change                         Max.-Flux-Residual
  Residual-Control   Outer-Iter.   Inner-Iter.     Column Row Layer    Maximum-Head-Change  Column Row Layer    Maximum-Flux-Residual          L2-NORM 
          0                 1           2             2    2     1       0.2905615958E-02       2    2    1         0.1516542128E+00      0.3770550096E+00
          0                 2           2             2    2     1      -0.2826375138E-03       2    2    1        -0.1516544218E-01      0.3767414756E-01
          0                 3           1             2    2     1       0.1924656393E-04       2    2    1         0.1061581209E-02      0.2634458299E-02

    ------------------------------------------------
       NWT REQUIRED            3 OUTER ITERATIONS 
       AND A TOTAL OF          5 INNER ITERATIONS.
    ------------------------------------------------

 NO OUTPUT CONTROL FOR STRESS PERIOD    3   TIME STEP   23
 
 SOLVING FOR HEAD 
                                                   Max.-Head-Change                         Max.-Flux-Residual
  Residual-Control   Outer-Iter.   Inner-Iter.     Column Row Layer    Maximum-Head-Change  Column Row Layer    Maximum-Flux-Residual          L2-NORM 
          0                 1           2             2    2     1       0.2888354939E-02       2    2    1         0.1507470290E+00      0.3745454168E+00
          0                 2           2             2    2     1      -0.2809584821E-03       2    2    1        -0.1507472346E-01      0.3742728485E-01
          0                 3           1             2    2     1       0.1913222826E-04       2    2    1         0.1055230902E-02      0.2617520590E-02

    ------------------------------------------------
       NWT REQUIRED            3 OUTER ITERATIONS 
       AND A TOTAL OF          5 INNER ITERATIONS.
    ------------------------------------------------

 NO OUTPUT CONTROL FOR STRESS PERIOD    3   TIME STEP   24
 
 SOLVING FOR HEAD 
                                                   Max.-Head-Change                         Max.-Flux-Residual
  Residual-Control   Outer-Iter.   Inner-Iter.     Column Row Layer    Maximum-Head-Change  Column Row Layer    Maximum-Flux-Residual          L2-NORM 
          0                 1           2             2    2     1       0.2871410514E-02       2    2    1         0.1498565005E+00      0.3721681515E+00
          0                 2           2             2    2     1      -0.2793102462E-03       2    2    1        -0.1498567025E-01      0.3719261828E-01
          0                 3           1             2    2     1       0.1901998904E-04       2    2    1         0.1048997171E-02      0.2601223372E-02

    ------------------------------------------------
       NWT REQUIRED            3 OUTER ITERATIONS 
       AND A TOTAL OF          5 INNER ITERATIONS.
    ------------------------------------------------

 NO OUTPUT CONTROL FOR STRESS PERIOD    3   TIME STEP   25
 
 SOLVING FOR HEAD 
                                                   Max.-Head-Change                         Max.-Flux-Residual
  Residual-Control   Outer-Iter.   Inner-Iter.     Column Row Layer    Maximum-Head-Change  Column Row Layer    Maximum-Flux-Residual          L2-NORM 
          0                 1           2             2    2     1       0.2854608264E-02       2    2    1         0.1489735121E+00      0.3699009105E+00
          0                 2           2             2    2     1      -0.2776758406E-03       2    2    1        -0.1489737109E-01      0.3696829214E-01
          0                 3           1             2    2     1       0.1890869248E-04       2    2    1         0.1042816234E-02      0.2585727980E-02

    ------------------------------------------------
       NWT REQUIRED            3 OUTER ITERATIONS 
       AND A TOTAL OF          5 INNER ITERATIONS.
    ------------------------------------------------

 NO OUTPUT CONTROL FOR STRESS PERIOD    3   TIME STEP   26
 
 SOLVING FOR HEAD 
                                                   Max.-Head-Change                         Max.-Flux-Residual
  Residual-Control   Outer-Iter.   Inner-Iter.     Column Row Layer    Maximum-Head-Change  Column Row Layer    Maximum-Flux-Residual          L2-NORM 
          0                 1           2             2    2     1       0.2838115570E-02       2    2    1         0.1481067704E+00      0.3677400383E+00
          0                 2           2             2    2     1      -0.2760715463E-03       2    2    1        -0.1481069658E-01      0.3675480245E-01
          0                 3           1             2    2     1       0.1879944623E-04       2    2    1         0.1036749030E-02      0.2571036846E-02

    ------------------------------------------------
       NWT REQUIRED            3 OUTER ITERATIONS 
       AND A TOTAL OF          5 INNER ITERATIONS.
    ------------------------------------------------

 NO OUTPUT CONTROL FOR STRESS PERIOD    3   TIME STEP   27
 
 SOLVING FOR HEAD 
                                                   Max.-Head-Change                         Max.-Flux-Residual
  Residual-Control   Outer-Iter.   Inner-Iter.     Column Row Layer    Maximum-Head-Change  Column Row Layer    Maximum-Flux-Residual          L2-NORM 
          0                 1           2             2    2     1       0.2821758846E-02       2    2    1         0.1472472037E+00      0.3656790175E+00
          0                 2           2             2    2     1      -0.2744804784E-03       2    2    1        -0.1472473959E-01      0.3655086991E-01
          0                 3           1             2    2     1       0.1869110052E-04       2    2    1         0.1030732055E-02      0.2557093291E-02

    ------------------------------------------------
       NWT REQUIRED            3 OUTER ITERATIONS 
       AND A TOTAL OF          5 INNER ITERATIONS.
    ------------------------------------------------

 NO OUTPUT CONTROL FOR STRESS PERIOD    3   TIME STEP   28
 
 SOLVING FOR HEAD 
                                                   Max.-Head-Change                         Max.-Flux-Residual
  Residual-Control   Outer-Iter.   Inner-Iter.     Column Row Layer    Maximum-Head-Change  Column Row Layer    Maximum-Flux-Residual          L2-NORM 
          0                 1           2             2    2     1       0.2805619931E-02       2    2    1         0.1463991244E+00      0.3637082943E+00
          0                 2           2             2    2     1      -0.2729105967E-03       2    2    1        -0.1463993132E-01      0.3635570891E-01
          0                 3           1             2    2     1       0.1858419710E-04       2    2    1         0.1024795464E-02      0.2543539986E-02

    ------------------------------------------------
       NWT REQUIRED            3 OUTER ITERATIONS 
       AND A TOTAL OF          5 INNER ITERATIONS.
    ------------------------------------------------

 NO OUTPUT CONTROL FOR STRESS PERIOD    3   TIME STEP   29
 
 SOLVING FOR HEAD 
                                                   Max.-Head-Change                         Max.-Flux-Residual
  Residual-Control   Outer-Iter.   Inner-Iter.     Column Row Layer    Maximum-Head-Change  Column Row Layer    Maximum-Flux-Residual          L2-NORM 
          0                 1           2             4   13     1       0.4709136809E-02       4   13    1         0.2696369064E+00      0.6974167750E+00
          0                 2           2             2    2     1      -0.4535412924E-03       4   13    1        -0.2668102261E-01      0.6881940714E-01
          0                 3           1             2    2     1       0.3088447269E-04       4   13    1         0.1840059044E-02      0.4731509499E-02

    ------------------------------------------------
       NWT REQUIRED            3 OUTER ITERATIONS 
       AND A TOTAL OF          5 INNER ITERATIONS.
    ------------------------------------------------

 NO OUTPUT CONTROL FOR STRESS PERIOD    3   TIME STEP   30



 STREAM LISTING     PERIOD      3   STEP       30

 LAYER ROW COL. STREAM  RCH.  FLOW INTO     FLOW TO   FLOW OUT OF   OVRLND.     DIRECT     STREAM       STREAM     STREAM     STREAM   STREAMBED  STREAMBED
                SEG.NO.  NO.  STRM. RCH.    AQUIFER    STRM. RCH.    RUNOFF     PRECIP       ET          HEAD       DEPTH      WIDTH   CONDCTNC.   GRADIENT

   1    1    1     1     1    2.7188E+01  2.5503E-01   2.6933E+01  0.000E+00  0.000E+00  0.000E+00  1.09426E+03  1.210E+00  1.346E+01  6.058E-02  1.403E+00
   1    2    2     1     2    2.6933E+01  3.9447E-01   2.6539E+01  0.000E+00  0.000E+00  0.000E+00  1.08926E+03  1.205E+00  1.340E+01  9.380E-02  1.402E+00
   1    3    3     1     3    2.6539E+01  3.3594E-01   2.6203E+01  0.000E+00  0.000E+00  0.000E+00  1.08362E+03  1.200E+00  1.333E+01  7.998E-02  1.400E+00
   1    3    4     1     4    2.6203E+01  3.0895E-01   2.5894E+01  0.000E+00  0.000E+00  0.000E+00  1.07860E+03  1.196E+00  1.327E+01  7.364E-02  1.399E+00
   1    4    5     2     1    2.3894E+01  3.2529E-01   2.3568E+01  0.000E+00  0.000E+00  0.000E+00  1.07310E+03  1.170E+00  1.200E+01  7.800E-02  1.390E+00
   1    5    6     2     2    2.3568E+01  2.4971E-01   2.3319E+01  0.000E+00  0.000E+00  0.000E+00  1.06767E+03  1.162E+00  1.200E+01  6.000E-02  1.387E+00
   1    6    6     2     3    2.3319E+01  2.4927E-01   2.3069E+01  0.000E+00  0.000E+00  0.000E+00  1.06295E+03  1.154E+00  1.200E+01  6.000E-02  1.385E+00
   1    7    6     2     4    2.3069E+01  2.4882E-01   2.2821E+01  0.000E+00  0.000E+00  0.000E+00  1.05822E+03  1.147E+00  1.200E+01  6.000E-02  1.382E+00
   1    8    6     2     5    2.2821E+01  2.4837E-01   2.2572E+01  0.000E+00  0.000E+00  0.000E+00  1.05350E+03  1.140E+00  1.200E+01  6.000E-02  1.380E+00
   1    3    5     3     1    2.0000E+00  2.8252E-01   1.7175E+00  0.000E+00  0.000E+00  0.000E+00  1.07555E+03  1.909E+00  9.636E+00  7.227E-02  1.955E+00
   1    3    6     3     2    1.7175E+00  2.4905E-01   1.4684E+00  0.000E+00  0.000E+00  0.000E+00  1.07264E+03  1.727E+00  8.909E+00  6.682E-02  1.864E+00
   1    3    7     3     3    1.4684E+00  1.9718E-01   1.2712E+00  0.000E+00  0.000E+00  0.000E+00  1.06987E+03  1.555E+00  8.218E+00  5.547E-02  1.777E+00
   1    4    8     3     4    1.2712E+00  2.2567E-01   1.0456E+00  0.000E+00  0.000E+00  0.000E+00  1.06682E+03  1.364E+00  7.455E+00  6.709E-02  1.682E+00
   1    5    8     3     5    1.0456E+00  1.5790E-01   8.8768E-01  0.000E+00  0.000E+00  0.000E+00  1.06362E+03  1.164E+00  6.655E+00  4.991E-02  1.582E+00
   1    6    8     3     6    8.8768E-01  5.5980E-02   8.3170E-01  0.000E+00  0.000E+00  0.000E+00  1.06158E+03  1.036E+00  6.145E+00  1.844E-02  1.518E+00
   1    5   10     4     1    1.0000E+01  9.0919E-02   9.9091E+00  0.000E+00  0.000E+00  0.000E+00  1.07836E+03  6.368E-01  1.000E+01  2.500E-02  1.212E+00
   1    5    9     4     2    9.9091E+00  1.8158E-01   9.7275E+00  0.000E+00  0.000E+00  0.000E+00  1.07154E+03  6.315E-01  1.000E+01  5.000E-02  1.211E+00
   1    6    8     4     3    9.7275E+00  1.2689E-01   9.6006E+00  0.000E+00  0.000E+00  0.000E+00  1.06381E+03  6.256E-01  1.000E+01  3.500E-02  1.209E+00
   1    6    8     5     1    1.0432E+01  2.2686E-01   1.0205E+01  0.000E+00  0.000E+00  0.000E+00  1.05868E+03  6.790E-01  1.542E+01  6.166E-02  1.226E+00
   1    7    7     5     2    1.0205E+01  2.7894E-01   9.9265E+00  0.000E+00  0.000E+00  0.000E+00  1.05417E+03  6.732E-01  1.519E+01  7.594E-02  1.224E+00
   1    8    7     5     3    9.9265E+00  1.9221E-01   9.7343E+00  0.000E+00  0.000E+00  0.000E+00  1.04992E+03  6.676E-01  1.497E+01  5.241E-02  1.223E+00
   1    8    6     5     4    9.7343E+00  1.3577E-01   9.5985E+00  0.000E+00  0.000E+00  0.000E+00  1.04691E+03  6.637E-01  1.482E+01  3.706E-02  1.221E+00
   1    9    6     6     1    3.2171E+01  2.6502E-01   3.1906E+01  0.000E+00  0.000E+00  0.000E+00  1.04414E+03  1.417E+00  1.200E+01  6.000E-02  1.472E+00
   1   10    7     6     2    3.1906E+01  2.6460E-01   3.1641E+01  0.000E+00  0.000E+00  0.000E+00  1.03959E+03  1.410E+00  1.200E+01  6.000E-02  1.470E+00
   1   11    7     6     3    3.1641E+01  2.6418E-01   3.1377E+01  0.000E+00  0.000E+00  0.000E+00  1.03504E+03  1.403E+00  1.200E+01  6.000E-02  1.468E+00
   1   12    7     6     4    3.1377E+01  2.6375E-01   3.1113E+01  0.000E+00  0.000E+00  0.000E+00  1.03049E+03  1.396E+00  1.200E+01  6.000E-02  1.465E+00
   1   13    7     6     5    3.1113E+01  1.0995E-02   3.1102E+01  0.000E+00  0.000E+00  0.000E+00  1.02730E+03  1.392E+00  1.200E+01  2.400E-02  1.527E-01
   1   14    9     7     1    1.5000E+02  1.3665E+00   1.4863E+02  0.000E+00  0.000E+00  0.000E+00  1.03987E+03  2.288E+00  5.529E+01  5.593E-01  8.144E-01
   1   13    8     7     2    1.4863E+02  1.9191E+00   1.4671E+02  0.000E+00  0.000E+00  0.000E+00  1.03478E+03  2.279E+00  5.526E+01  6.148E-01  1.041E+00
   1   13    7     7     3    1.4671E+02  1.5891E+00   1.4513E+02  0.000E+00  0.000E+00  0.000E+00  1.02969E+03  2.270E+00  5.521E+01  5.584E-01  9.486E-01
   1   13    6     8     1    1.7623E+02  1.0561E+00   1.7517E+02  0.000E+00  0.000E+00  0.000E+00  1.02486E+03  2.989E+00  4.334E+01  4.416E-01  7.971E-01
   1   13    5     8     2    1.7517E+02  2.7870E-01   1.7489E+02  0.000E+00  0.000E+00  0.000E+00  1.01861E+03  2.985E+00  4.328E+01  4.410E-01  2.106E-01
   1   13    4     8     3    1.7489E+02 -1.9966E+00   1.7689E+02  0.000E+00  0.000E+00  0.000E+00  1.01237E+03  2.990E+00  4.336E+01  4.418E+00 -1.506E-01
   1   13    3     8     4    1.7689E+02 -3.3281E+00   1.8022E+02  0.000E+00  0.000E+00  0.000E+00  1.00613E+03  3.007E+00  4.360E+01  4.443E+00 -2.497E-01
   1   13    2     8     5    1.8022E+02 -2.3039E+00   1.8252E+02  0.000E+00  0.000E+00  0.000E+00  9.99900E+02  3.025E+00  4.386E+01  4.469E+00 -1.718E-01
   1   13    1     8     6    1.8252E+02 -1.8174E+00   1.8434E+02  0.000E+00  0.000E+00  0.000E+00  9.94913E+02  3.038E+00  4.405E+01  2.693E+00 -2.250E-01
   1    8    6     9     1    0.0000E+00  0.0000E+00   0.0000E+00  0.000E+00  0.000E+00  0.000E+00  1.07875E+03  0.000E+00  4.000E+00  0.000E+00  1.000E+00
   1    8    5     9     2    0.0000E+00  0.0000E+00   0.0000E+00  0.000E+00  0.000E+00  0.000E+00  1.07825E+03  0.000E+00  4.000E+00  0.000E+00  1.000E+00





UNSATURATED ZONE PACKAGE VOLUMETRIC BUDGET FOR  TIME STEP    30 STRESS PERIOD    3
  ------------------------------------------------------------------------------



     CUMULATIVE VOLUMES      L**3       RATES FOR THIS TIME STEP      L**3/T
     ------------------                 ------------------------

           IN:                                      IN:
           ---                                      ---
        INFILTRATION =     4531073.7455          INFILTRATION =           0.8475

          OUT:                                     OUT:
          ----                                     ----
              UZF ET =     3944985.5897                UZF ET =           0.7500
        UZF RECHARGE =       73224.0000          UZF RECHARGE =       0.0000E+00

            IN - OUT =      512864.1558              IN - OUT =       9.7500E-02

          STORAGE:                                 STORAGE:
          --------                                 --------
      STORAGE CHANGE =      512864.1946        STORAGE CHANGE =       9.7500E-02

 PERCENT DISCREPANCY IS DIFFERENCE BETWEEN IN-OUT MINUS CHANGE IN STORAGE
 DIVIDED BY THE AVERAGE OF IN AND OUT TIMES 100

 PERCENT DISCREPANCY =          -0.00     PERCENT DISCREPANCY =           0.00






1
  VOLUMETRIC BUDGET FOR AGRICULTURAL FIELDS AT  END OF TIME STEP   30, STRESS PERIOD   3
  ------------------------------------------------------------------------------

     CUMULATIVE VOLUMES      L**3       RATES FOR THIS TIME STEP      L**3/T
     ------------------                 ------------------------

           IN:                                      IN:
           ---                                      ---
           AG WELLS      =           0.0000             AG WELLS      =           0.0000
      DIVERSION SEGMENTS =           0.0000        DIVERSION SEGMENTS =           0.0000
           GW IRRIGATION =           0.0000             GW IRRIGATION =           0.0000
           SW IRRIGATION =           0.0000             SW IRRIGATION =           0.0000
        SYSTEM LOSSES GW =           0.0000          SYSTEM LOSSES GW =           0.0000
        SYSTEM LOSSES SW =           0.0000          SYSTEM LOSSES SW =           0.0000

                TOTAL IN =           0.0000                  TOTAL IN =           0.0000

          OUT:                                     OUT:
          ----                                     ----
           AG WELLS      =           0.0000             AG WELLS      =           0.0000
      DIVERSION SEGMENTS =           0.0000        DIVERSION SEGMENTS =           0.0000
           GW IRRIGATION =           0.0000             GW IRRIGATION =           0.0000
           SW IRRIGATION =           0.0000             SW IRRIGATION =           0.0000
        SYSTEM LOSSES GW =           0.0000          SYSTEM LOSSES GW =           0.0000
        SYSTEM LOSSES SW =           0.0000          SYSTEM LOSSES SW =           0.0000

               TOTAL OUT =           0.0000                 TOTAL OUT =           0.0000

                IN - OUT =           0.0000                  IN - OUT =           0.0000

     PERCENT DISCREPANCY =           0.00         PERCENT DISCREPANCY =           0.00



1
  VOLUMETRIC BUDGET FOR ENTIRE MODEL AT END OF TIME STEP   30, STRESS PERIOD   3
  ------------------------------------------------------------------------------

     CUMULATIVE VOLUMES      L**3       RATES FOR THIS TIME STEP      L**3/T
     ------------------                 ------------------------

           IN:                                      IN:
           ---                                      ---
             STORAGE     =     3101464.7500               STORAGE     =           0.4931
       CONSTANT HEAD     =           0.0000         CONSTANT HEAD     =           0.0000
     HEAD DEP BOUNDS     =     1538702.5000       HEAD DEP BOUNDS     =           0.2878
      STREAM LEAKAGE     =    60993756.0000        STREAM LEAKAGE     =          12.2952
        UZF RECHARGE     =       73223.9531          UZF RECHARGE     =           0.0000
               GW ET     =           0.0000                 GW ET     =           0.0000
     SURFACE LEAKAGE     =           0.0000       SURFACE LEAKAGE     =           0.0000
           AG WELLS      =           0.0000             AG WELLS      =           0.0000

                TOTAL IN =    65707148.0000                  TOTAL IN =          13.0762

          OUT:                                     OUT:
          ----                                     ----
             STORAGE     =     9831364.0000               STORAGE     =           3.3427
       CONSTANT HEAD     =           0.0000         CONSTANT HEAD     =           0.0000
     HEAD DEP BOUNDS     =     1536322.6250       HEAD DEP BOUNDS     =           0.2883
      STREAM LEAKAGE     =    54341368.0000        STREAM LEAKAGE     =           9.4460
        UZF RECHARGE     =           0.0000          UZF RECHARGE     =           0.0000
               GW ET     =           0.0000                 GW ET     =           0.0000
     SURFACE LEAKAGE     =           0.0000       SURFACE LEAKAGE     =           0.0000
           AG WELLS      =           0.0000             AG WELLS      =           0.0000

               TOTAL OUT =    65709056.0000                 TOTAL OUT =          13.0770

                IN - OUT =       -1908.0000                  IN - OUT =      -8.0872E-04

     PERCENT DISCREPANCY =          -0.00         PERCENT DISCREPANCY =          -0.01






         TIME SUMMARY AT END OF TIME STEP   30 IN STRESS PERIOD    3
                    SECONDS     MINUTES      HOURS       DAYS        YEARS
                    -----------------------------------------------------------
   TIME STEP LENGTH  87667.      1461.1      24.352      1.0147     2.77799E-03
 STRESS PERIOD TIME 2.63000E+06  43833.      730.56      30.440     8.33397E-02
         TOTAL TIME 5.34640E+06  89107.      1485.1      61.880     0.16942    
1
1
                            STRESS PERIOD NO.    4, LENGTH =   2630000.    
                            -----------------------------------------------

                              NUMBER OF TIME STEPS =    30

                               MULTIPLIER FOR DELT =     1.000

                            INITIAL TIME STEP SIZE =   87666.66    

 REUSING NON-PARAMETER GHB CELLS FROM LAST STRESS PERIOD

      2 GHB CELLS

 REUSING STREAM SEGMENT DATA FROM LAST STRESS PERIOD



            AREAL INFILTRATION RATE
 READING ON UNIT   19 WITH FORMAT: (FREE)              

            1           2           3           4           5           6           7           8           9          10
 ........................................................................................................................
   1   1.0000E-10  2.0000E-10   0.000       0.000       0.000       0.000       0.000       0.000       0.000       0.000    
   2   2.0000E-10  1.0000E-10  2.0000E-10   0.000       0.000      8.0000E-10  8.0000E-10  5.0000E-10   0.000       0.000    
   3    0.000      5.0000E-10  1.0000E-10  1.0000E-10  8.0000E-10  8.0000E-10  5.0000E-10  5.0000E-10   0.000       0.000    
   4   8.0000E-10  5.0000E-10  1.0000E-10  1.0000E-10  1.0000E-10  1.0000E-10  1.0000E-10  1.0000E-10  2.0000E-10   0.000    
   5   8.0000E-10  5.0000E-10  1.0000E-10  1.0000E-10  1.0000E-10  1.0000E-10  1.0000E-10  1.0000E-10  1.0000E-10  1.0000E-10
   6   8.0000E-10  5.0000E-10  5.0000E-10  2.0000E-10  2.0000E-10  1.0000E-10  1.0000E-10  1.0000E-10  1.0000E-10  5.0000E-10
   7   8.0000E-10  5.0000E-10  5.0000E-10  2.0000E-10  2.0000E-10  1.0000E-10  1.0000E-10  2.0000E-10  2.0000E-10   0.000    
   8    0.000      5.0000E-10  5.0000E-10  2.0000E-10  2.0000E-10  1.0000E-10  1.0000E-10  2.0000E-10  5.0000E-10   0.000    
   9    0.000      5.0000E-10  5.0000E-10  2.0000E-10  2.0000E-10  1.0000E-10  1.0000E-10  2.0000E-10  5.0000E-10   0.000    
  10    0.000      5.0000E-10  5.0000E-10  2.0000E-10  2.0000E-10  1.0000E-10  1.0000E-10  2.0000E-10  5.0000E-10  8.0000E-10
  11    0.000      1.0000E-10  1.0000E-10  1.0000E-10  1.0000E-10  1.0000E-10  1.0000E-10  2.0000E-10  5.0000E-10   0.000    
  12   1.0000E-10  1.0000E-10  1.0000E-10  1.0000E-10  1.0000E-10  1.0000E-10  1.0000E-10  1.0000E-10  2.0000E-10   0.000    
  13   1.0000E-10  1.0000E-10  2.0000E-10  2.0000E-10  2.0000E-10  2.0000E-10  2.0000E-10  1.0000E-10  1.0000E-10   0.000    
  14    0.000      2.0000E-10  5.0000E-10  5.0000E-10  5.0000E-10  5.0000E-10  5.0000E-10  2.0000E-10  1.0000E-10   0.000    
  15    0.000       0.000      8.0000E-10  8.0000E-10  8.0000E-10  8.0000E-10   0.000       0.000       0.000       0.000    

                  ET RATE =  5.000000E-10

 USING ET EXTINCTION DEPTH FROM PREVIOUS STRESS PERIOD. CURRENT PERIOD IS:       4

 USING EXTINCTION WATER CONTENT FROM PREVIOUS STRESS PERIOD. CURRENT PERIOD IS:       4

 USING AIR ENTRY PRESSURE FROM PREVIOUS STRESS PERIOD. CURRENT PERIOD IS:       4

 USING ROOT PRESSURE HEAD FROM PREVIOUS STRESS PERIOD. CURRENT PERIOD IS:       4

 USING ROOT ACTIVITY FROM PREVIOUS STRESS PERIOD. CURRENT PERIOD IS:       4

 PROCESSING AG STRESS PERIOD DATA

 READING AG STRESS PERIOD DATA

 READING IRRIGATION SEGMENT

 READING IRRIGATION WELL

 READING SUPPLEMENTAL WELL

 END PROCESSING AG STRESS PERIOD DATA OPTIONS
 
 SOLVING FOR HEAD 
                                                   Max.-Head-Change                         Max.-Flux-Residual
  Residual-Control   Outer-Iter.   Inner-Iter.     Column Row Layer    Maximum-Head-Change  Column Row Layer    Maximum-Flux-Residual          L2-NORM 
          0                 1           2             4   13     1       0.4940254060E-02       4   13    1         0.2828335364E+00      0.7295639810E+00
          0                 2           2             4   13     1      -0.4754262552E-03       4   13    1        -0.2798492593E-01      0.7196015433E-01
          0                 3           1             2    2     1       0.3214211446E-04       4   13    1         0.1930053891E-02      0.4944999565E-02

    ------------------------------------------------
       NWT REQUIRED            3 OUTER ITERATIONS 
       AND A TOTAL OF          5 INNER ITERATIONS.
    ------------------------------------------------

 NO OUTPUT CONTROL FOR STRESS PERIOD    4   TIME STEP    1
 
 SOLVING FOR HEAD 
                                                   Max.-Head-Change                         Max.-Flux-Residual
  Residual-Control   Outer-Iter.   Inner-Iter.     Column Row Layer    Maximum-Head-Change  Column Row Layer    Maximum-Flux-Residual          L2-NORM 
          0                 1           2             2    2     1       0.4822157583E-02       4   13    1         0.2567874525E+00      0.7019739491E+00
          0                 2           2             2    2     1      -0.4690653484E-03       4   13    1        -0.2540507498E-01      0.6931303985E-01
          0                 3           1             2    2     1       0.3194160249E-04       2    2    1         0.1762315083E-02      0.4770801368E-02

    ------------------------------------------------
       NWT REQUIRED            3 OUTER ITERATIONS 
       AND A TOTAL OF          5 INNER ITERATIONS.
    ------------------------------------------------

 NO OUTPUT CONTROL FOR STRESS PERIOD    4   TIME STEP    2
 
 SOLVING FOR HEAD 
                                                   Max.-Head-Change                         Max.-Flux-Residual
  Residual-Control   Outer-Iter.   Inner-Iter.     Column Row Layer    Maximum-Head-Change  Column Row Layer    Maximum-Flux-Residual          L2-NORM 
          0                 1           2             2    2     1       0.4792218275E-02       2    2    1         0.2501847211E+00      0.6774939908E+00
          0                 2           2             2    2     1      -0.4661530540E-03       2    2    1        -0.2501853140E-01      0.6696501458E-01
          0                 3           1             2    2     1       0.3174328639E-04       2    2    1         0.1751297400E-02      0.4614591764E-02

    ------------------------------------------------
       NWT REQUIRED            3 OUTER ITERATIONS 
       AND A TOTAL OF          5 INNER ITERATIONS.
    ------------------------------------------------

 NO OUTPUT CONTROL FOR STRESS PERIOD    4   TIME STEP    3
 
 SOLVING FOR HEAD 
                                                   Max.-Head-Change                         Max.-Flux-Residual
  Residual-Control   Outer-Iter.   Inner-Iter.     Column Row Layer    Maximum-Head-Change  Column Row Layer    Maximum-Flux-Residual          L2-NORM 
          0                 1           2             2    2     1       0.4762604938E-02       2    2    1         0.2486279630E+00      0.6557715732E+00
          0                 2           2             2    2     1      -0.4632724675E-03       2    2    1        -0.2486285453E-01      0.6488331357E-01
          0                 3           1             2    2     1       0.3154712850E-04       2    2    1         0.1740399999E-02      0.4477532787E-02

    ------------------------------------------------
       NWT REQUIRED            3 OUTER ITERATIONS 
       AND A TOTAL OF          5 INNER ITERATIONS.
    ------------------------------------------------

 NO OUTPUT CONTROL FOR STRESS PERIOD    4   TIME STEP    4
 
 SOLVING FOR HEAD 
                                                   Max.-Head-Change                         Max.-Flux-Residual
  Residual-Control   Outer-Iter.   Inner-Iter.     Column Row Layer    Maximum-Head-Change  Column Row Layer    Maximum-Flux-Residual          L2-NORM 
          0                 1           2             2    2     1       0.4733481710E-02       2    2    1         0.2470969832E+00      0.6364937839E+00
          0                 2           2             2    2     1      -0.4604395563E-03       2    2    1        -0.2470975552E-01      0.6303669227E-01
          0                 3           1             2    2     1       0.3135421848E-04       2    2    1         0.1729683089E-02      0.4356112170E-02

    ------------------------------------------------
       NWT REQUIRED            3 OUTER ITERATIONS 
       AND A TOTAL OF          5 INNER ITERATIONS.
    ------------------------------------------------

 NO OUTPUT CONTROL FOR STRESS PERIOD    4   TIME STEP    5
 
 SOLVING FOR HEAD 
                                                   Max.-Head-Change                         Max.-Flux-Residual
  Residual-Control   Outer-Iter.   Inner-Iter.     Column Row Layer    Maximum-Head-Change  Column Row Layer    Maximum-Flux-Residual          L2-NORM 
          0                 1           2             2    2     1       0.4704671723E-02       2    2    1         0.2455825377E+00      0.6193639979E+00
          0                 2           2             2    2     1      -0.4576371155E-03       2    2    1        -0.2455830999E-01      0.6139710657E-01
          0                 3           1             2    2     1       0.3116338291E-04       2    2    1         0.1719081920E-02      0.4248789101E-02

    ------------------------------------------------
       NWT REQUIRED            3 OUTER ITERATIONS 
       AND A TOTAL OF          5 INNER ITERATIONS.
    ------------------------------------------------

 NO OUTPUT CONTROL FOR STRESS PERIOD    4   TIME STEP    6
 
 SOLVING FOR HEAD 
                                                   Max.-Head-Change                         Max.-Flux-Residual
  Residual-Control   Outer-Iter.   Inner-Iter.     Column Row Layer    Maximum-Head-Change  Column Row Layer    Maximum-Flux-Residual          L2-NORM 
          0                 1           2             2    2     1       0.4676254724E-02       2    2    1         0.2440887720E+00      0.6041379785E+00
          0                 2           2             2    2     1      -0.4548729011E-03       2    2    1        -0.2440893243E-01      0.5993787656E-01
          0                 3           1             2    2     1       0.3097515027E-04       2    2    1         0.1708625487E-02      0.4151729320E-02

    ------------------------------------------------
       NWT REQUIRED            3 OUTER ITERATIONS 
       AND A TOTAL OF          5 INNER ITERATIONS.
    ------------------------------------------------

 NO OUTPUT CONTROL FOR STRESS PERIOD    4   TIME STEP    7
 
 SOLVING FOR HEAD 
                                                   Max.-Head-Change                         Max.-Flux-Residual
  Residual-Control   Outer-Iter.   Inner-Iter.     Column Row Layer    Maximum-Head-Change  Column Row Layer    Maximum-Flux-Residual          L2-NORM 
          0                 1           2             2    2     1       0.4648224625E-02       2    2    1         0.2426153824E+00      0.5905842825E+00
          0                 2           2             2    2     1      -0.4521463224E-03       2    2    1        -0.2426159251E-01      0.5864016789E-01
          0                 3           1             2    2     1       0.3078948032E-04       2    2    1         0.1698311696E-02      0.4066779503E-02

    ------------------------------------------------
       NWT REQUIRED            3 OUTER ITERATIONS 
       AND A TOTAL OF          5 INNER ITERATIONS.
    ------------------------------------------------

 NO OUTPUT CONTROL FOR STRESS PERIOD    4   TIME STEP    8
 
 SOLVING FOR HEAD 
                                                   Max.-Head-Change                         Max.-Flux-Residual
  Residual-Control   Outer-Iter.   Inner-Iter.     Column Row Layer    Maximum-Head-Change  Column Row Layer    Maximum-Flux-Residual          L2-NORM 
          0                 1           2             2    2     1       0.4620490796E-02       2    2    1         0.2411576139E+00      0.5784936515E+00
          0                 2           2             2    2     1      -0.4494485629E-03       2    2    1        -0.2411581473E-01      0.5748079373E-01
          0                 3           1             2    2     1       0.3060577287E-04       2    2    1         0.1688107249E-02      0.3990009837E-02

    ------------------------------------------------
       NWT REQUIRED            3 OUTER ITERATIONS 
       AND A TOTAL OF          5 INNER ITERATIONS.
    ------------------------------------------------

 NO OUTPUT CONTROL FOR STRESS PERIOD    4   TIME STEP    9
 
 SOLVING FOR HEAD 
                                                   Max.-Head-Change                         Max.-Flux-Residual
  Residual-Control   Outer-Iter.   Inner-Iter.     Column Row Layer    Maximum-Head-Change  Column Row Layer    Maximum-Flux-Residual          L2-NORM 
          0                 1           2             2    2     1       0.4593217499E-02       2    2    1         0.2397240851E+00      0.5676879250E+00
          0                 2           2             2    2     1      -0.4467956013E-03       2    2    1        -0.2397246095E-01      0.5644239693E-01
          0                 3           1             2    2     1       0.3042511661E-04       2    2    1         0.1678072501E-02      0.3919705557E-02

    ------------------------------------------------
       NWT REQUIRED            3 OUTER ITERATIONS 
       AND A TOTAL OF          5 INNER ITERATIONS.
    ------------------------------------------------

 NO OUTPUT CONTROL FOR STRESS PERIOD    4   TIME STEP   10
 
 SOLVING FOR HEAD 
                                                   Max.-Head-Change                         Max.-Flux-Residual
  Residual-Control   Outer-Iter.   Inner-Iter.     Column Row Layer    Maximum-Head-Change  Column Row Layer    Maximum-Flux-Residual          L2-NORM 
          0                 1           2             2    2     1       0.4566229086E-02       2    2    1         0.2383055556E+00      0.5580164441E+00
          0                 2           2             2    2     1      -0.4441703509E-03       2    2    1        -0.2383060709E-01      0.5551733647E-01
          0                 3           1             2    2     1       0.3024634664E-04       2    2    1         0.1668142728E-02      0.3860730970E-02

    ------------------------------------------------
       NWT REQUIRED            3 OUTER ITERATIONS 
       AND A TOTAL OF          5 INNER ITERATIONS.
    ------------------------------------------------

 NO OUTPUT CONTROL FOR STRESS PERIOD    4   TIME STEP   11
 
 SOLVING FOR HEAD 
                                                   Max.-Head-Change                         Max.-Flux-Residual
  Residual-Control   Outer-Iter.   Inner-Iter.     Column Row Layer    Maximum-Head-Change  Column Row Layer    Maximum-Flux-Residual          L2-NORM 
          0                 1           2             2    2     1       0.4539604724E-02       2    2    1         0.2369062365E+00      0.5493256300E+00
          0                 2           2             2    2     1      -0.4415805133E-03       2    2    1        -0.2369067432E-01      0.5468243130E-01
          0                 3           1             2    2     1       0.3006998813E-04       2    2    1         0.1658347432E-02      0.3805047756E-02

    ------------------------------------------------
       NWT REQUIRED            3 OUTER ITERATIONS 
       AND A TOTAL OF          5 INNER ITERATIONS.
    ------------------------------------------------

 NO OUTPUT CONTROL FOR STRESS PERIOD    4   TIME STEP   12
 
 SOLVING FOR HEAD 
                                                   Max.-Head-Change                         Max.-Flux-Residual
  Residual-Control   Outer-Iter.   Inner-Iter.     Column Row Layer    Maximum-Head-Change  Column Row Layer    Maximum-Flux-Residual          L2-NORM 
          0                 1           2             2    2     1       0.4513339485E-02       2    2    1         0.2355257930E+00      0.5415016453E+00
          0                 2           2             2    2     1      -0.4390256092E-03       2    2    1        -0.2355262914E-01      0.5393060692E-01
          0                 3           1             2    2     1       0.2989600890E-04       2    2    1         0.1648684272E-02      0.3755331928E-02

    ------------------------------------------------
       NWT REQUIRED            3 OUTER ITERATIONS 
       AND A TOTAL OF          5 INNER ITERATIONS.
    ------------------------------------------------

 NO OUTPUT CONTROL FOR STRESS PERIOD    4   TIME STEP   13
 
 SOLVING FOR HEAD 
                                                   Max.-Head-Change                         Max.-Flux-Residual
  Residual-Control   Outer-Iter.   Inner-Iter.     Column Row Layer    Maximum-Head-Change  Column Row Layer    Maximum-Flux-Residual          L2-NORM 
          0                 1           2             2    2     1       0.4487427826E-02       2    2    1         0.2341639697E+00      0.5344406390E+00
          0                 2           2             2    2     1      -0.4365050985E-03       2    2    1        -0.2341644594E-01      0.5325071536E-01
          0                 3           1             2    2     1       0.2972437179E-04       2    2    1         0.1639151456E-02      0.3710082794E-02

    ------------------------------------------------
       NWT REQUIRED            3 OUTER ITERATIONS 
       AND A TOTAL OF          5 INNER ITERATIONS.
    ------------------------------------------------

 NO OUTPUT CONTROL FOR STRESS PERIOD    4   TIME STEP   14
 
 SOLVING FOR HEAD 
                                                   Max.-Head-Change                         Max.-Flux-Residual
  Residual-Control   Outer-Iter.   Inner-Iter.     Column Row Layer    Maximum-Head-Change  Column Row Layer    Maximum-Flux-Residual          L2-NORM 
          0                 1           2             2    2     1       0.4461780033E-02       2    2    1         0.2328160390E+00      0.5280411374E+00
          0                 2           2             2    2     1      -0.4340102553E-03       2    2    1        -0.2328165206E-01      0.5263365072E-01
          0                 3           1             2    2     1       0.2955448250E-04       2    2    1         0.1629715893E-02      0.3668517790E-02

    ------------------------------------------------
       NWT REQUIRED            3 OUTER ITERATIONS 
       AND A TOTAL OF          5 INNER ITERATIONS.
    ------------------------------------------------

 NO OUTPUT CONTROL FOR STRESS PERIOD    4   TIME STEP   15
 
 SOLVING FOR HEAD 
                                                   Max.-Head-Change                         Max.-Flux-Residual
  Residual-Control   Outer-Iter.   Inner-Iter.     Column Row Layer    Maximum-Head-Change  Column Row Layer    Maximum-Flux-Residual          L2-NORM 
          0                 1           2             2    2     1       0.4436475633E-02       2    2    1         0.2314862295E+00      0.5222152298E+00
          0                 2           2             2    2     1      -0.4315488156E-03       2    2    1        -0.2314867034E-01      0.5207205197E-01
          0                 3           1             2    2     1       0.2938686765E-04       2    2    1         0.1620407179E-02      0.3631164256E-02

    ------------------------------------------------
       NWT REQUIRED            3 OUTER ITERATIONS 
       AND A TOTAL OF          5 INNER ITERATIONS.
    ------------------------------------------------

 NO OUTPUT CONTROL FOR STRESS PERIOD    4   TIME STEP   16
 
 SOLVING FOR HEAD 
                                                   Max.-Head-Change                         Max.-Flux-Residual
  Residual-Control   Outer-Iter.   Inner-Iter.     Column Row Layer    Maximum-Head-Change  Column Row Layer    Maximum-Flux-Residual          L2-NORM 
          0                 1           2             2    2     1       0.4411510040E-02       2    2    1         0.2301742244E+00      0.5168939270E+00
          0                 2           2             2    2     1      -0.4291203322E-03       2    2    1        -0.2301746904E-01      0.5155762869E-01
          0                 3           1             2    2     1       0.2922149717E-04       2    2    1         0.1611223097E-02      0.3597045539E-02

    ------------------------------------------------
       NWT REQUIRED            3 OUTER ITERATIONS 
       AND A TOTAL OF          5 INNER ITERATIONS.
    ------------------------------------------------

 NO OUTPUT CONTROL FOR STRESS PERIOD    4   TIME STEP   17
 
 SOLVING FOR HEAD 
                                                   Max.-Head-Change                         Max.-Flux-Residual
  Residual-Control   Outer-Iter.   Inner-Iter.     Column Row Layer    Maximum-Head-Change  Column Row Layer    Maximum-Flux-Residual          L2-NORM 
          0                 1           2             2    2     1       0.4386877703E-02       2    2    1         0.2288797862E+00      0.5120294248E+00
          0                 2           2             2    2     1      -0.4267242657E-03       2    2    1        -0.2288802445E-01      0.5108618150E-01
          0                 3           1             2    2     1       0.2905833367E-04       2    2    1         0.1602161971E-02      0.3565162153E-02

    ------------------------------------------------
       NWT REQUIRED            3 OUTER ITERATIONS 
       AND A TOTAL OF          5 INNER ITERATIONS.
    ------------------------------------------------

 NO OUTPUT CONTROL FOR STRESS PERIOD    4   TIME STEP   18
 
 SOLVING FOR HEAD 
                                                   Max.-Head-Change                         Max.-Flux-Residual
  Residual-Control   Outer-Iter.   Inner-Iter.     Column Row Layer    Maximum-Head-Change  Column Row Layer    Maximum-Flux-Residual          L2-NORM 
          0                 1           2             2    2     1       0.4362573845E-02       2    2    1         0.2276026270E+00      0.5075546267E+00
          0                 2           2             2    2     1      -0.4243601519E-03       2    2    1        -0.2276030779E-01      0.5065320008E-01
          0                 3           1             2    2     1       0.2889734662E-04       2    2    1         0.1593221805E-02      0.3536293280E-02

    ------------------------------------------------
       NWT REQUIRED            3 OUTER ITERATIONS 
       AND A TOTAL OF          5 INNER ITERATIONS.
    ------------------------------------------------

 NO OUTPUT CONTROL FOR STRESS PERIOD    4   TIME STEP   19
 
 SOLVING FOR HEAD 
                                                   Max.-Head-Change                         Max.-Flux-Residual
  Residual-Control   Outer-Iter.   Inner-Iter.     Column Row Layer    Maximum-Head-Change  Column Row Layer    Maximum-Flux-Residual          L2-NORM 
          0                 1           2             2    2     1       0.4338508452E-02       2    2    1         0.2263380583E+00      0.5034377484E+00
          0                 2           2             2    2     1      -0.4220192344E-03       2    2    1        -0.2263385019E-01      0.5025361756E-01
          0                 3           1             2    2     1       0.2873793842E-04       2    2    1         0.1584369763E-02      0.3509737241E-02

    ------------------------------------------------
       NWT REQUIRED            3 OUTER ITERATIONS 
       AND A TOTAL OF          5 INNER ITERATIONS.
    ------------------------------------------------

 NO OUTPUT CONTROL FOR STRESS PERIOD    4   TIME STEP   20
 
 SOLVING FOR HEAD 
                                                   Max.-Head-Change                         Max.-Flux-Residual
  Residual-Control   Outer-Iter.   Inner-Iter.     Column Row Layer    Maximum-Head-Change  Column Row Layer    Maximum-Flux-Residual          L2-NORM 
          0                 1           2             2    2     1       0.4314847168E-02       2    2    1         0.2250947353E+00      0.4996133819E+00
          0                 2           2             2    2     1      -0.4197176259E-03       2    2    1        -0.2250951718E-01      0.4988202170E-01
          0                 3           1             2    2     1       0.2858120793E-04       2    2    1         0.1575666462E-02      0.3484505145E-02

    ------------------------------------------------
       NWT REQUIRED            3 OUTER ITERATIONS 
       AND A TOTAL OF          5 INNER ITERATIONS.
    ------------------------------------------------

 NO OUTPUT CONTROL FOR STRESS PERIOD    4   TIME STEP   21
 
 SOLVING FOR HEAD 
                                                   Max.-Head-Change                         Max.-Flux-Residual
  Residual-Control   Outer-Iter.   Inner-Iter.     Column Row Layer    Maximum-Head-Change  Column Row Layer    Maximum-Flux-Residual          L2-NORM 
          0                 1           2             2    2     1       0.4291414479E-02       2    2    1         0.2238634830E+00      0.4960630000E+00
          0                 2           2             2    2     1      -0.4174382541E-03       2    2    1        -0.2238639126E-01      0.4953555933E-01
          0                 3           1             2    2     1       0.2842599145E-04       2    2    1         0.1567047673E-02      0.3460935748E-02

    ------------------------------------------------
       NWT REQUIRED            3 OUTER ITERATIONS 
       AND A TOTAL OF          5 INNER ITERATIONS.
    ------------------------------------------------

 NO OUTPUT CONTROL FOR STRESS PERIOD    4   TIME STEP   22
 
 SOLVING FOR HEAD 
                                                   Max.-Head-Change                         Max.-Flux-Residual
  Residual-Control   Outer-Iter.   Inner-Iter.     Column Row Layer    Maximum-Head-Change  Column Row Layer    Maximum-Flux-Residual          L2-NORM 
          0                 1           2             2    2     1       0.4268291955E-02       2    2    1         0.2226485241E+00      0.4927558579E+00
          0                 2           2             2    2     1      -0.4151890524E-03       2    2    1        -0.2226489467E-01      0.4921288649E-01
          0                 3           1             2    2     1       0.2827282929E-04       2    2    1         0.1558542905E-02      0.3439051360E-02

    ------------------------------------------------
       NWT REQUIRED            3 OUTER ITERATIONS 
       AND A TOTAL OF          5 INNER ITERATIONS.
    ------------------------------------------------

 NO OUTPUT CONTROL FOR STRESS PERIOD    4   TIME STEP   23
 
 SOLVING FOR HEAD 
                                                   Max.-Head-Change                         Max.-Flux-Residual
  Residual-Control   Outer-Iter.   Inner-Iter.     Column Row Layer    Maximum-Head-Change  Column Row Layer    Maximum-Flux-Residual          L2-NORM 
          0                 1           2             2    2     1       0.4245474501E-02       2    2    1         0.2214496470E+00      0.4896634156E+00
          0                 2           2             2    2     1      -0.4129695262E-03       2    2    1        -0.2214500630E-01      0.4890999654E-01
          0                 3           1             2    2     1       0.2812168760E-04       2    2    1         0.1550150717E-02      0.3418764024E-02

    ------------------------------------------------
       NWT REQUIRED            3 OUTER ITERATIONS 
       AND A TOTAL OF          5 INNER ITERATIONS.
    ------------------------------------------------

 NO OUTPUT CONTROL FOR STRESS PERIOD    4   TIME STEP   24
 
 SOLVING FOR HEAD 
                                                   Max.-Head-Change                         Max.-Flux-Residual
  Residual-Control   Outer-Iter.   Inner-Iter.     Column Row Layer    Maximum-Head-Change  Column Row Layer    Maximum-Flux-Residual          L2-NORM 
          0                 1           2             2    2     1       0.4222872837E-02       2    2    1         0.2202621459E+00      0.4867598423E+00
          0                 2           2             2    2     1      -0.4107709911E-03       2    2    1        -0.2202625555E-01      0.4862614022E-01
          0                 3           1             2    2     1       0.2797197567E-04       2    2    1         0.1541838174E-02      0.3398971447E-02

    ------------------------------------------------
       NWT REQUIRED            3 OUTER ITERATIONS 
       AND A TOTAL OF          5 INNER ITERATIONS.
    ------------------------------------------------

 NO OUTPUT CONTROL FOR STRESS PERIOD    4   TIME STEP   25
 
 SOLVING FOR HEAD 
                                                   Max.-Head-Change                         Max.-Flux-Residual
  Residual-Control   Outer-Iter.   Inner-Iter.     Column Row Layer    Maximum-Head-Change  Column Row Layer    Maximum-Flux-Residual          L2-NORM 
          0                 1           2             2    2     1       0.4200652667E-02       2    2    1         0.2190947162E+00      0.4840164055E+00
          0                 2           2             2    2     1      -0.4086095643E-03       2    2    1        -0.2190951193E-01      0.4835785523E-01
          0                 3           1             2    2     1       0.2782479069E-04       2    2    1         0.1533666110E-02      0.3380996787E-02

    ------------------------------------------------
       NWT REQUIRED            3 OUTER ITERATIONS 
       AND A TOTAL OF          5 INNER ITERATIONS.
    ------------------------------------------------

 NO OUTPUT CONTROL FOR STRESS PERIOD    4   TIME STEP   26
 
 SOLVING FOR HEAD 
                                                   Max.-Head-Change                         Max.-Flux-Residual
  Residual-Control   Outer-Iter.   Inner-Iter.     Column Row Layer    Maximum-Head-Change  Column Row Layer    Maximum-Flux-Residual          L2-NORM 
          0                 1           2             2    2     1       0.4178639160E-02       2    2    1         0.2179381834E+00      0.4814391590E+00
          0                 2           2             2    2     1      -0.4064682415E-03       2    2    1        -0.2179385804E-01      0.4810489317E-01
          0                 3           1             2    2     1       0.2767897487E-04       2    2    1         0.1525570355E-02      0.3363678767E-02

    ------------------------------------------------
       NWT REQUIRED            3 OUTER ITERATIONS 
       AND A TOTAL OF          5 INNER ITERATIONS.
    ------------------------------------------------

 NO OUTPUT CONTROL FOR STRESS PERIOD    4   TIME STEP   27
 
 SOLVING FOR HEAD 
                                                   Max.-Head-Change                         Max.-Flux-Residual
  Residual-Control   Outer-Iter.   Inner-Iter.     Column Row Layer    Maximum-Head-Change  Column Row Layer    Maximum-Flux-Residual          L2-NORM 
          0                 1           2             2    2     1       0.4156913551E-02       2    2    1         0.2167968075E+00      0.4789933315E+00
          0                 2           2             2    2     1      -0.4043549225E-03       2    2    1        -0.2167971982E-01      0.4786439523E-01
          0                 3           1             2    2     1       0.2753506545E-04       2    2    1         0.1517580677E-02      0.3347339350E-02

    ------------------------------------------------
       NWT REQUIRED            3 OUTER ITERATIONS 
       AND A TOTAL OF          5 INNER ITERATIONS.
    ------------------------------------------------

 NO OUTPUT CONTROL FOR STRESS PERIOD    4   TIME STEP   28
 
 SOLVING FOR HEAD 
                                                   Max.-Head-Change                         Max.-Flux-Residual
  Residual-Control   Outer-Iter.   Inner-Iter.     Column Row Layer    Maximum-Head-Change  Column Row Layer    Maximum-Flux-Residual          L2-NORM 
          0                 1           2             2    2     1       0.4135471841E-02       2    2    1         0.2156703588E+00      0.4766663408E+00
          0                 2           2             2    2     1      -0.4022692199E-03       2    2    1        -0.2156707436E-01      0.4763557775E-01
          0                 3           1             2    2     1       0.2739303687E-04       2    2    1         0.1509695497E-02      0.3372475522E-02

    ------------------------------------------------
       NWT REQUIRED            3 OUTER ITERATIONS 
       AND A TOTAL OF          5 INNER ITERATIONS.
    ------------------------------------------------

 NO OUTPUT CONTROL FOR STRESS PERIOD    4   TIME STEP   29
 
 SOLVING FOR HEAD 
                                                   Max.-Head-Change                         Max.-Flux-Residual
  Residual-Control   Outer-Iter.   Inner-Iter.     Column Row Layer    Maximum-Head-Change  Column Row Layer    Maximum-Flux-Residual          L2-NORM 
          0                 1           2             2    2     1       0.3369543325E-02       2    2    1         0.1756372830E+00      0.4352889761E+00
          0                 2           2             2    2     1      -0.3277650367E-03       2    2    1        -0.1756375192E-01      0.4340655926E-01
          0                 3           1             2    2     1       0.2231958058E-04       2    2    1         0.1229462943E-02      0.3027373875E-02

    ------------------------------------------------
       NWT REQUIRED            3 OUTER ITERATIONS 
       AND A TOTAL OF          5 INNER ITERATIONS.
    ------------------------------------------------

 NO OUTPUT CONTROL FOR STRESS PERIOD    4   TIME STEP   30



 STREAM LISTING     PERIOD      4   STEP       30

 LAYER ROW COL. STREAM  RCH.  FLOW INTO     FLOW TO   FLOW OUT OF   OVRLND.     DIRECT     STREAM       STREAM     STREAM     STREAM   STREAMBED  STREAMBED
                SEG.NO.  NO.  STRM. RCH.    AQUIFER    STRM. RCH.    RUNOFF     PRECIP       ET          HEAD       DEPTH      WIDTH   CONDCTNC.   GRADIENT

   1    1    1     1     1    2.3343E+01  2.3738E-01   2.3105E+01  0.000E+00  0.000E+00  0.000E+00  1.09420E+03  1.153E+00  1.270E+01  5.716E-02  1.384E+00
   1    2    2     1     2    2.3105E+01  3.6700E-01   2.2738E+01  0.000E+00  0.000E+00  0.000E+00  1.08921E+03  1.148E+00  1.264E+01  8.847E-02  1.383E+00
   1    3    3     1     3    2.2738E+01  3.1238E-01   2.2426E+01  0.000E+00  0.000E+00  0.000E+00  1.08356E+03  1.143E+00  1.257E+01  7.540E-02  1.381E+00
   1    3    4     1     4    2.2426E+01  2.8716E-01   2.2139E+01  0.000E+00  0.000E+00  0.000E+00  1.07855E+03  1.138E+00  1.250E+01  6.939E-02  1.379E+00
   1    4    5     2     1    2.0139E+01  3.1634E-01   1.9822E+01  0.000E+00  0.000E+00  0.000E+00  1.07299E+03  1.056E+00  1.200E+01  7.800E-02  1.352E+00
   1    5    6     2     2    1.9822E+01  2.4280E-01   1.9580E+01  0.000E+00  0.000E+00  0.000E+00  1.06756E+03  1.047E+00  1.200E+01  6.000E-02  1.349E+00
   1    6    6     2     3    1.9580E+01  2.4234E-01   1.9337E+01  0.000E+00  0.000E+00  0.000E+00  1.06283E+03  1.039E+00  1.200E+01  6.000E-02  1.346E+00
   1    7    6     2     4    1.9337E+01  2.4187E-01   1.9095E+01  0.000E+00  0.000E+00  0.000E+00  1.05811E+03  1.031E+00  1.200E+01  6.000E-02  1.344E+00
   1    8    6     2     5    1.9095E+01  2.4140E-01   1.8854E+01  0.000E+00  0.000E+00  0.000E+00  1.05338E+03  1.023E+00  1.200E+01  6.000E-02  1.341E+00
   1    3    5     3     1    2.0000E+00  2.8252E-01   1.7175E+00  0.000E+00  0.000E+00  0.000E+00  1.07555E+03  1.909E+00  9.636E+00  7.227E-02  1.955E+00
   1    3    6     3     2    1.7175E+00  2.4905E-01   1.4684E+00  0.000E+00  0.000E+00  0.000E+00  1.07264E+03  1.727E+00  8.909E+00  6.682E-02  1.864E+00
   1    3    7     3     3    1.4684E+00  1.9718E-01   1.2712E+00  0.000E+00  0.000E+00  0.000E+00  1.06987E+03  1.555E+00  8.218E+00  5.547E-02  1.777E+00
   1    4    8     3     4    1.2712E+00  2.2567E-01   1.0456E+00  0.000E+00  0.000E+00  0.000E+00  1.06682E+03  1.364E+00  7.455E+00  6.709E-02  1.682E+00
   1    5    8     3     5    1.0456E+00  1.5790E-01   8.8768E-01  0.000E+00  0.000E+00  0.000E+00  1.06362E+03  1.164E+00  6.655E+00  4.991E-02  1.582E+00
   1    6    8     3     6    8.8768E-01  5.5980E-02   8.3170E-01  0.000E+00  0.000E+00  0.000E+00  1.06158E+03  1.036E+00  6.145E+00  1.844E-02  1.518E+00
   1    5   10     4     1    1.0000E+01  9.0919E-02   9.9091E+00  0.000E+00  0.000E+00  0.000E+00  1.07836E+03  6.368E-01  1.000E+01  2.500E-02  1.212E+00
   1    5    9     4     2    9.9091E+00  1.8158E-01   9.7275E+00  0.000E+00  0.000E+00  0.000E+00  1.07154E+03  6.315E-01  1.000E+01  5.000E-02  1.211E+00
   1    6    8     4     3    9.7275E+00  1.2689E-01   9.6006E+00  0.000E+00  0.000E+00  0.000E+00  1.06381E+03  6.256E-01  1.000E+01  3.500E-02  1.209E+00
   1    6    8     5     1    1.0432E+01  2.2686E-01   1.0205E+01  0.000E+00  0.000E+00  0.000E+00  1.05868E+03  6.790E-01  1.542E+01  6.166E-02  1.226E+00
   1    7    7     5     2    1.0205E+01  2.7894E-01   9.9265E+00  0.000E+00  0.000E+00  0.000E+00  1.05417E+03  6.732E-01  1.519E+01  7.594E-02  1.224E+00
   1    8    7     5     3    9.9265E+00  1.9221E-01   9.7343E+00  0.000E+00  0.000E+00  0.000E+00  1.04992E+03  6.676E-01  1.497E+01  5.241E-02  1.223E+00
   1    8    6     5     4    9.7343E+00  1.3577E-01   9.5985E+00  0.000E+00  0.000E+00  0.000E+00  1.04691E+03  6.637E-01  1.482E+01  3.706E-02  1.221E+00
   1    9    6     6     1    2.8452E+01  2.5896E-01   2.8194E+01  0.000E+00  0.000E+00  0.000E+00  1.04404E+03  1.316E+00  1.200E+01  6.000E-02  1.439E+00
   1   10    7     6     2    2.8194E+01  2.5853E-01   2.7935E+01  0.000E+00  0.000E+00  0.000E+00  1.03949E+03  1.309E+00  1.200E+01  6.000E-02  1.436E+00
   1   11    7     6     3    2.7935E+01  2.5809E-01   2.7677E+01  0.000E+00  0.000E+00  0.000E+00  1.03494E+03  1.302E+00  1.200E+01  6.000E-02  1.434E+00
   1   12    7     6     4    2.7677E+01  2.5766E-01   2.7419E+01  0.000E+00  0.000E+00  0.000E+00  1.03039E+03  1.294E+00  1.200E+01  6.000E-02  1.431E+00
   1   13    7     6     5    2.7419E+01  8.2030E-03   2.7411E+01  0.000E+00  0.000E+00  0.000E+00  1.02720E+03  1.291E+00  1.200E+01  2.400E-02  1.139E-01
   1   14    9     7     1    1.5000E+02  1.3670E+00   1.4863E+02  0.000E+00  0.000E+00  0.000E+00  1.03987E+03  2.288E+00  5.529E+01  5.593E-01  8.147E-01
   1   13    8     7     2    1.4863E+02  1.9172E+00   1.4672E+02  0.000E+00  0.000E+00  0.000E+00  1.03478E+03  2.279E+00  5.526E+01  6.148E-01  1.040E+00
   1   13    7     7     3    1.4672E+02  1.5809E+00   1.4513E+02  0.000E+00  0.000E+00  0.000E+00  1.02969E+03  2.270E+00  5.521E+01  5.584E-01  9.437E-01
   1   13    6     8     1    1.7255E+02  1.0238E+00   1.7152E+02  0.000E+00  0.000E+00  0.000E+00  1.02484E+03  2.965E+00  4.300E+01  4.382E-01  7.788E-01
   1   13    5     8     2    1.7152E+02  2.5244E-01   1.7127E+02  0.000E+00  0.000E+00  0.000E+00  1.01859E+03  2.961E+00  4.294E+01  4.376E-01  1.923E-01
   1   13    4     8     3    1.7127E+02 -2.2862E+00   1.7356E+02  0.000E+00  0.000E+00  0.000E+00  1.01234E+03  2.968E+00  4.303E+01  4.385E+00 -1.738E-01
   1   13    3     8     4    1.7356E+02 -3.5976E+00   1.7715E+02  0.000E+00  0.000E+00  0.000E+00  1.00611E+03  2.987E+00  4.331E+01  4.413E+00 -2.717E-01
   1   13    2     8     5    1.7715E+02 -2.6042E+00   1.7976E+02  0.000E+00  0.000E+00  0.000E+00  9.99881E+02  3.006E+00  4.359E+01  4.442E+00 -1.954E-01
   1   13    1     8     6    1.7976E+02 -1.9818E+00   1.8174E+02  0.000E+00  0.000E+00  0.000E+00  9.94896E+02  3.021E+00  4.380E+01  2.678E+00 -2.467E-01
   1    8    6     9     1    0.0000E+00  0.0000E+00   0.0000E+00  0.000E+00  0.000E+00  0.000E+00  1.07875E+03  0.000E+00  4.000E+00  0.000E+00  1.000E+00
   1    8    5     9     2    0.0000E+00  0.0000E+00   0.0000E+00  0.000E+00  0.000E+00  0.000E+00  1.07825E+03  0.000E+00  4.000E+00  0.000E+00  1.000E+00





UNSATURATED ZONE PACKAGE VOLUMETRIC BUDGET FOR  TIME STEP    30 STRESS PERIOD    4
  ------------------------------------------------------------------------------



     CUMULATIVE VOLUMES      L**3       RATES FOR THIS TIME STEP      L**3/T
     ------------------                 ------------------------

           IN:                                      IN:
           ---                                      ---
        INFILTRATION =     6759998.6182          INFILTRATION =           0.8475

          OUT:                                     OUT:
          ----                                     ----
              UZF ET =     5917485.4539                UZF ET =           0.7500
        UZF RECHARGE =       73224.0000          UZF RECHARGE =       0.0000E+00

            IN - OUT =      769289.1644              IN - OUT =       9.7500E-02

          STORAGE:                                 STORAGE:
          --------                                 --------
      STORAGE CHANGE =      769289.2225        STORAGE CHANGE =       9.7500E-02

 PERCENT DISCREPANCY IS DIFFERENCE BETWEEN IN-OUT MINUS CHANGE IN STORAGE
 DIVIDED BY THE AVERAGE OF IN AND OUT TIMES 100

 PERCENT DISCREPANCY =           0.00     PERCENT DISCREPANCY =           0.00






1
  VOLUMETRIC BUDGET FOR AGRICULTURAL FIELDS AT  END OF TIME STEP   30, STRESS PERIOD   4
  ------------------------------------------------------------------------------

     CUMULATIVE VOLUMES      L**3       RATES FOR THIS TIME STEP      L**3/T
     ------------------                 ------------------------

           IN:                                      IN:
           ---                                      ---
           AG WELLS      =           0.0000             AG WELLS      =           0.0000
      DIVERSION SEGMENTS =           0.0000        DIVERSION SEGMENTS =           0.0000
           GW IRRIGATION =           0.0000             GW IRRIGATION =           0.0000
           SW IRRIGATION =           0.0000             SW IRRIGATION =           0.0000
        SYSTEM LOSSES GW =           0.0000          SYSTEM LOSSES GW =           0.0000
        SYSTEM LOSSES SW =           0.0000          SYSTEM LOSSES SW =           0.0000

                TOTAL IN =           0.0000                  TOTAL IN =           0.0000

          OUT:                                     OUT:
          ----                                     ----
           AG WELLS      =           0.0000             AG WELLS      =           0.0000
      DIVERSION SEGMENTS =           0.0000        DIVERSION SEGMENTS =           0.0000
           GW IRRIGATION =           0.0000             GW IRRIGATION =           0.0000
           SW IRRIGATION =           0.0000             SW IRRIGATION =           0.0000
        SYSTEM LOSSES GW =           0.0000          SYSTEM LOSSES GW =           0.0000
        SYSTEM LOSSES SW =           0.0000          SYSTEM LOSSES SW =           0.0000

               TOTAL OUT =           0.0000                 TOTAL OUT =           0.0000

                IN - OUT =           0.0000                  IN - OUT =           0.0000

     PERCENT DISCREPANCY =           0.00         PERCENT DISCREPANCY =           0.00



1
  VOLUMETRIC BUDGET FOR ENTIRE MODEL AT END OF TIME STEP   30, STRESS PERIOD   4
  ------------------------------------------------------------------------------

     CUMULATIVE VOLUMES      L**3       RATES FOR THIS TIME STEP      L**3/T
     ------------------                 ------------------------

           IN:                                      IN:
           ---                                      ---
             STORAGE     =     4302723.0000               STORAGE     =           0.6662
       CONSTANT HEAD     =           0.0000         CONSTANT HEAD     =           0.0000
     HEAD DEP BOUNDS     =     2295783.0000       HEAD DEP BOUNDS     =           0.2879
      STREAM LEAKAGE     =    93457376.0000        STREAM LEAKAGE     =          12.0729
        UZF RECHARGE     =       73223.9531          UZF RECHARGE     =           0.0000
               GW ET     =           0.0000                 GW ET     =           0.0000
     SURFACE LEAKAGE     =           0.0000       SURFACE LEAKAGE     =           0.0000
           AG WELLS      =           0.0000             AG WELLS      =           0.0000

                TOTAL IN =   100129104.0000                  TOTAL IN =          13.0270

          OUT:                                     OUT:
          ----                                     ----
             STORAGE     =    17553954.0000               STORAGE     =           2.2674
       CONSTANT HEAD     =           0.0000         CONSTANT HEAD     =           0.0000
     HEAD DEP BOUNDS     =     2297699.7500       HEAD DEP BOUNDS     =           0.2902
      STREAM LEAKAGE     =    80281208.0000        STREAM LEAKAGE     =          10.4698
        UZF RECHARGE     =           0.0000          UZF RECHARGE     =           0.0000
               GW ET     =           0.0000                 GW ET     =           0.0000
     SURFACE LEAKAGE     =           0.0000       SURFACE LEAKAGE     =           0.0000
           AG WELLS      =           0.0000             AG WELLS      =           0.0000

               TOTAL OUT =   100132864.0000                 TOTAL OUT =          13.0274

                IN - OUT =       -3760.0000                  IN - OUT =      -4.5490E-04

     PERCENT DISCREPANCY =          -0.00         PERCENT DISCREPANCY =          -0.00






         TIME SUMMARY AT END OF TIME STEP   30 IN STRESS PERIOD    4
                    SECONDS     MINUTES      HOURS       DAYS        YEARS
                    -----------------------------------------------------------
   TIME STEP LENGTH  87667.      1461.1      24.352      1.0147     2.77799E-03
 STRESS PERIOD TIME 2.63000E+06  43833.      730.56      30.440     8.33397E-02
         TOTAL TIME 7.97639E+06 1.32940E+05  2215.7      92.319     0.25276    
1
1
                            STRESS PERIOD NO.    5, LENGTH =   2630000.    
                            -----------------------------------------------

                              NUMBER OF TIME STEPS =    30

                               MULTIPLIER FOR DELT =     1.000

                            INITIAL TIME STEP SIZE =   87666.66    

 REUSING NON-PARAMETER GHB CELLS FROM LAST STRESS PERIOD

      2 GHB CELLS

 REUSING STREAM SEGMENT DATA FROM LAST STRESS PERIOD



            AREAL INFILTRATION RATE
 READING ON UNIT   19 WITH FORMAT: (FREE)              

            1           2           3           4           5           6           7           8           9          10
 ........................................................................................................................
   1   1.0000E-10  2.0000E-10   0.000       0.000       0.000       0.000       0.000       0.000       0.000       0.000    
   2   2.0000E-10  1.0000E-10  2.0000E-10   0.000       0.000      8.0000E-10  8.0000E-10  5.0000E-10   0.000       0.000    
   3    0.000      5.0000E-10  1.0000E-10  1.0000E-10  8.0000E-10  8.0000E-10  5.0000E-10  5.0000E-10   0.000       0.000    
   4   8.0000E-10  5.0000E-10  1.0000E-10  1.0000E-10  1.0000E-10  1.0000E-10  1.0000E-10  1.0000E-10  2.0000E-10   0.000    
   5   8.0000E-10  5.0000E-10  1.0000E-10  1.0000E-10  1.0000E-10  1.0000E-10  1.0000E-10  1.0000E-10  1.0000E-10  1.0000E-10
   6   8.0000E-10  5.0000E-10  5.0000E-10  2.0000E-10  2.0000E-10  1.0000E-10  1.0000E-10  1.0000E-10  1.0000E-10  5.0000E-10
   7   8.0000E-10  5.0000E-10  5.0000E-10  2.0000E-10  2.0000E-10  1.0000E-10  1.0000E-10  2.0000E-10  2.0000E-10   0.000    
   8    0.000      5.0000E-10  5.0000E-10  2.0000E-10  2.0000E-10  1.0000E-10  1.0000E-10  2.0000E-10  5.0000E-10   0.000    
   9    0.000      5.0000E-10  5.0000E-10  2.0000E-10  2.0000E-10  1.0000E-10  1.0000E-10  2.0000E-10  5.0000E-10   0.000    
  10    0.000      5.0000E-10  5.0000E-10  2.0000E-10  2.0000E-10  1.0000E-10  1.0000E-10  2.0000E-10  5.0000E-10  8.0000E-10
  11    0.000      1.0000E-10  1.0000E-10  1.0000E-10  1.0000E-10  1.0000E-10  1.0000E-10  2.0000E-10  5.0000E-10   0.000    
  12   1.0000E-10  1.0000E-10  1.0000E-10  1.0000E-10  1.0000E-10  1.0000E-10  1.0000E-10  1.0000E-10  2.0000E-10   0.000    
  13   1.0000E-10  1.0000E-10  2.0000E-10  2.0000E-10  2.0000E-10  2.0000E-10  2.0000E-10  1.0000E-10  1.0000E-10   0.000    
  14    0.000      2.0000E-10  5.0000E-10  5.0000E-10  5.0000E-10  5.0000E-10  5.0000E-10  2.0000E-10  1.0000E-10   0.000    
  15    0.000       0.000      8.0000E-10  8.0000E-10  8.0000E-10  8.0000E-10   0.000       0.000       0.000       0.000    

                  ET RATE =  2.500000E-08

 USING ET EXTINCTION DEPTH FROM PREVIOUS STRESS PERIOD. CURRENT PERIOD IS:       5

 USING EXTINCTION WATER CONTENT FROM PREVIOUS STRESS PERIOD. CURRENT PERIOD IS:       5

 USING AIR ENTRY PRESSURE FROM PREVIOUS STRESS PERIOD. CURRENT PERIOD IS:       5

 USING ROOT PRESSURE HEAD FROM PREVIOUS STRESS PERIOD. CURRENT PERIOD IS:       5

 USING ROOT ACTIVITY FROM PREVIOUS STRESS PERIOD. CURRENT PERIOD IS:       5

 PROCESSING AG STRESS PERIOD DATA

 READING AG STRESS PERIOD DATA

 READING IRRIGATION SEGMENT

 READING IRRIGATION WELL

 READING SUPPLEMENTAL WELL

 END PROCESSING AG STRESS PERIOD DATA OPTIONS
 
 SOLVING FOR HEAD 
                                                   Max.-Head-Change                         Max.-Flux-Residual
  Residual-Control   Outer-Iter.   Inner-Iter.     Column Row Layer    Maximum-Head-Change  Column Row Layer    Maximum-Flux-Residual          L2-NORM 
          0                 1           2             4   13     1      -0.7750541857E-02       4   13    1        -0.4441166749E+00      0.7888330163E+00
          0                 2           2             4    7     1      -0.1159012252E-01       5    6    1        -0.6253668522E+00      0.1529289624E+01
          0                 3           2             4    7     1       0.9380805214E-02       5    6    1         0.5180915518E+00      0.1268746335E+01
          0                 4           2             4    7     1      -0.3732724588E-03       5    6    1        -0.2118999900E-01      0.5189176925E-01
          0                 5           1             4    7     1       0.4602608954E-05       5    6    1         0.2685425648E-03      0.6577092044E-03

    ------------------------------------------------
       NWT REQUIRED            5 OUTER ITERATIONS 
       AND A TOTAL OF          9 INNER ITERATIONS.
    ------------------------------------------------

 NO OUTPUT CONTROL FOR STRESS PERIOD    5   TIME STEP    1
 
 SOLVING FOR HEAD 
                                                   Max.-Head-Change                         Max.-Flux-Residual
  Residual-Control   Outer-Iter.   Inner-Iter.     Column Row Layer    Maximum-Head-Change  Column Row Layer    Maximum-Flux-Residual          L2-NORM 
          0                 1           2             4   13     1      -0.5476522153E-02       4   13    1        -0.3139496256E+00      0.5966932632E+00
          0                 2           2             4   13     1       0.5279899326E-03       4   13    1         0.3112072862E-01      0.5841065609E-01
          0                 3           1             4   13     1      -0.3550117205E-04       4   13    1        -0.2151427807E-02      0.3970048127E-02

    ------------------------------------------------
       NWT REQUIRED            3 OUTER ITERATIONS 
       AND A TOTAL OF          5 INNER ITERATIONS.
    ------------------------------------------------

 OUTPUT CONTROL FOR STRESS PERIOD    5   TIME STEP    2
    PRINT BUDGET
    SAVE BUDGET
 UBDSV1 SAVING "         STORAGE" ON UNIT 102 AT TIME STEP  2, STRESS PERIOD   5
 UBDSV2 SAVING "   CONSTANT HEAD" ON UNIT 102 AT TIME STEP  2, STRESS PERIOD   5
 UBDSV1 SAVING "FLOW RIGHT FACE " ON UNIT 102 AT TIME STEP  2, STRESS PERIOD   5
 UBDSV1 SAVING "FLOW FRONT FACE " ON UNIT 102 AT TIME STEP  2, STRESS PERIOD   5

  HEAD DEP BOUNDS   PERIOD    5   STEP     2
 BOUNDARY      1   LAYER   1   ROW    13   COL     1   RATE   -0.289920    
 BOUNDARY      2   LAYER   1   ROW    14   COL     9   RATE    0.287882    



 STREAM LISTING     PERIOD      5   STEP        2

 LAYER ROW COL. STREAM  RCH.  FLOW INTO     FLOW TO   FLOW OUT OF   OVRLND.     DIRECT     STREAM       STREAM     STREAM     STREAM   STREAMBED  STREAMBED
                SEG.NO.  NO.  STRM. RCH.    AQUIFER    STRM. RCH.    RUNOFF     PRECIP       ET          HEAD       DEPTH      WIDTH   CONDCTNC.   GRADIENT

   1    1    1     1     1    1.0500E+01  1.5271E-01   1.0347E+01  0.000E+00  0.000E+00  0.000E+00  1.09396E+03  9.109E-01  8.677E+00  3.905E-02  1.304E+00
   1    2    2     1     2    1.0347E+01  2.3504E-01   1.0112E+01  0.000E+00  0.000E+00  0.000E+00  1.08896E+03  9.059E-01  8.597E+00  6.018E-02  1.302E+00
   1    3    3     1     3    1.0112E+01  1.9904E-01   9.9132E+00  0.000E+00  0.000E+00  0.000E+00  1.08332E+03  9.003E-01  8.505E+00  5.103E-02  1.300E+00
   1    3    4     1     4    9.9132E+00  1.8195E-01   9.7312E+00  0.000E+00  0.000E+00  0.000E+00  1.07830E+03  8.947E-01  8.417E+00  4.672E-02  1.298E+00
   1    4    5     2     1    7.7312E+00  2.8007E-01   7.4512E+00  0.000E+00  0.000E+00  0.000E+00  1.07252E+03  5.907E-01  1.200E+01  7.800E-02  1.197E+00
   1    5    6     2     2    7.4512E+00  2.1474E-01   7.2364E+00  0.000E+00  0.000E+00  0.000E+00  1.06709E+03  5.790E-01  1.200E+01  6.000E-02  1.193E+00
   1    6    6     2     3    7.2364E+00  2.1413E-01   7.0223E+00  0.000E+00  0.000E+00  0.000E+00  1.06236E+03  5.688E-01  1.200E+01  6.000E-02  1.190E+00
   1    7    6     2     4    7.0223E+00  2.1351E-01   6.8088E+00  0.000E+00  0.000E+00  0.000E+00  1.05763E+03  5.585E-01  1.200E+01  6.000E-02  1.186E+00
   1    8    6     2     5    6.8088E+00  2.1289E-01   6.5959E+00  0.000E+00  0.000E+00  0.000E+00  1.05291E+03  5.481E-01  1.200E+01  6.000E-02  1.183E+00
   1    3    5     3     1    2.0000E+00  2.8252E-01   1.7175E+00  0.000E+00  0.000E+00  0.000E+00  1.07555E+03  1.909E+00  9.636E+00  7.227E-02  1.955E+00
   1    3    6     3     2    1.7175E+00  2.4905E-01   1.4684E+00  0.000E+00  0.000E+00  0.000E+00  1.07264E+03  1.727E+00  8.909E+00  6.682E-02  1.864E+00
   1    3    7     3     3    1.4684E+00  1.9718E-01   1.2712E+00  0.000E+00  0.000E+00  0.000E+00  1.06987E+03  1.555E+00  8.218E+00  5.547E-02  1.777E+00
   1    4    8     3     4    1.2712E+00  2.2567E-01   1.0456E+00  0.000E+00  0.000E+00  0.000E+00  1.06682E+03  1.364E+00  7.455E+00  6.709E-02  1.682E+00
   1    5    8     3     5    1.0456E+00  1.5790E-01   8.8768E-01  0.000E+00  0.000E+00  0.000E+00  1.06362E+03  1.164E+00  6.655E+00  4.991E-02  1.582E+00
   1    6    8     3     6    8.8768E-01  5.5980E-02   8.3170E-01  0.000E+00  0.000E+00  0.000E+00  1.06158E+03  1.036E+00  6.145E+00  1.844E-02  1.518E+00
   1    5   10     4     1    1.0000E+01  9.0919E-02   9.9091E+00  0.000E+00  0.000E+00  0.000E+00  1.07836E+03  6.368E-01  1.000E+01  2.500E-02  1.212E+00
   1    5    9     4     2    9.9091E+00  1.8158E-01   9.7275E+00  0.000E+00  0.000E+00  0.000E+00  1.07154E+03  6.315E-01  1.000E+01  5.000E-02  1.211E+00
   1    6    8     4     3    9.7275E+00  1.2689E-01   9.6006E+00  0.000E+00  0.000E+00  0.000E+00  1.06381E+03  6.256E-01  1.000E+01  3.500E-02  1.209E+00
   1    6    8     5     1    1.0432E+01  2.2686E-01   1.0205E+01  0.000E+00  0.000E+00  0.000E+00  1.05868E+03  6.790E-01  1.542E+01  6.166E-02  1.226E+00
   1    7    7     5     2    1.0205E+01  2.7894E-01   9.9265E+00  0.000E+00  0.000E+00  0.000E+00  1.05417E+03  6.732E-01  1.519E+01  7.594E-02  1.224E+00
   1    8    7     5     3    9.9265E+00  1.9221E-01   9.7343E+00  0.000E+00  0.000E+00  0.000E+00  1.04992E+03  6.676E-01  1.497E+01  5.241E-02  1.223E+00
   1    8    6     5     4    9.7343E+00  1.3577E-01   9.5985E+00  0.000E+00  0.000E+00  0.000E+00  1.04691E+03  6.637E-01  1.482E+01  3.706E-02  1.221E+00
   1    9    6     6     1    1.6194E+01  2.3621E-01   1.5958E+01  0.000E+00  0.000E+00  0.000E+00  1.04366E+03  9.369E-01  1.200E+01  6.000E-02  1.312E+00
   1   10    7     6     2    1.5958E+01  2.3572E-01   1.5723E+01  0.000E+00  0.000E+00  0.000E+00  1.03911E+03  9.286E-01  1.200E+01  6.000E-02  1.310E+00
   1   11    7     6     3    1.5723E+01  2.3522E-01   1.5487E+01  0.000E+00  0.000E+00  0.000E+00  1.03456E+03  9.203E-01  1.200E+01  6.000E-02  1.307E+00
   1   12    7     6     4    1.5487E+01  2.3472E-01   1.5253E+01  0.000E+00  0.000E+00  0.000E+00  1.03000E+03  9.120E-01  1.200E+01  6.000E-02  1.304E+00
   1   13    7     6     5    1.5253E+01 -9.5692E-03   1.5262E+01  0.000E+00  0.000E+00  0.000E+00  1.02682E+03  9.079E-01  1.200E+01  2.400E-01 -1.329E-02
   1   14    9     7     1    1.5000E+02  1.3670E+00   1.4863E+02  0.000E+00  0.000E+00  0.000E+00  1.03987E+03  2.288E+00  5.529E+01  5.593E-01  8.147E-01
   1   13    8     7     2    1.4863E+02  1.9171E+00   1.4672E+02  0.000E+00  0.000E+00  0.000E+00  1.03478E+03  2.279E+00  5.526E+01  6.148E-01  1.039E+00
   1   13    7     7     3    1.4672E+02  1.5814E+00   1.4513E+02  0.000E+00  0.000E+00  0.000E+00  1.02969E+03  2.270E+00  5.521E+01  5.584E-01  9.440E-01
   1   13    6     8     1    1.6040E+02  9.6279E-01   1.5943E+02  0.000E+00  0.000E+00  0.000E+00  1.02476E+03  2.885E+00  4.184E+01  4.263E-01  7.528E-01
   1   13    5     8     2    1.5943E+02  2.1203E-01   1.5922E+02  0.000E+00  0.000E+00  0.000E+00  1.01851E+03  2.881E+00  4.178E+01  4.257E-01  1.660E-01
   1   13    4     8     3    1.5922E+02 -2.5063E+00   1.6173E+02  0.000E+00  0.000E+00  0.000E+00  1.01226E+03  2.889E+00  4.189E+01  4.269E+00 -1.957E-01
   1   13    3     8     4    1.6173E+02 -3.7856E+00   1.6551E+02  0.000E+00  0.000E+00  0.000E+00  1.00604E+03  2.910E+00  4.220E+01  4.300E+00 -2.935E-01
   1   13    2     8     5    1.6551E+02 -2.8086E+00   1.6832E+02  0.000E+00  0.000E+00  0.000E+00  9.99807E+02  2.932E+00  4.251E+01  4.332E+00 -2.161E-01
   1   13    1     8     6    1.6832E+02 -2.1075E+00   1.7043E+02  0.000E+00  0.000E+00  0.000E+00  9.94823E+02  2.948E+00  4.275E+01  2.614E+00 -2.688E-01
   1    8    6     9     1    2.2132E-07  0.0000E+00   2.2132E-07  0.000E+00  0.000E+00  0.000E+00  1.07875E+03  5.785E-05  4.000E+00  0.000E+00  1.000E+00
   1    8    5     9     2    2.2132E-07  0.0000E+00   2.2132E-07  0.000E+00  0.000E+00  0.000E+00  1.07825E+03  5.785E-05  4.000E+00  0.000E+00  1.000E+00



 UBDSV3 SAVING "           GW ET" ON UNIT  61 AT TIME STEP  2, STRESS PERIOD   5
 UBDSV3 SAVING "    UZF RECHARGE" ON UNIT  61 AT TIME STEP  2, STRESS PERIOD   5
 UBDSV3 SAVING " SURFACE LEAKAGE" ON UNIT  61 AT TIME STEP  2, STRESS PERIOD   5
 UBDSV3 SAVING "       HORT+DUNN" ON UNIT  61 AT TIME STEP  2, STRESS PERIOD   5
 UBDSV3 SAVING "  STORAGE CHANGE" ON UNIT  61 AT TIME STEP  2, STRESS PERIOD   5


UNSATURATED ZONE PACKAGE VOLUMETRIC BUDGET FOR  TIME STEP     2 STRESS PERIOD    5
  ------------------------------------------------------------------------------



     CUMULATIVE VOLUMES      L**3       RATES FOR THIS TIME STEP      L**3/T
     ------------------                 ------------------------

           IN:                                      IN:
           ---                                      ---
        INFILTRATION =     7563475.1761          INFILTRATION =           0.8475

          OUT:                                     OUT:
          ----                                     ----
              UZF ET =     7406349.9180                UZF ET =           4.5966
        UZF RECHARGE =       73224.0000          UZF RECHARGE =       0.0000E+00

            IN - OUT =       83901.2581              IN - OUT =          -3.7491

          STORAGE:                                 STORAGE:
          --------                                 --------
      STORAGE CHANGE =       83900.6170        STORAGE CHANGE =          -3.7491

 PERCENT DISCREPANCY IS DIFFERENCE BETWEEN IN-OUT MINUS CHANGE IN STORAGE
 DIVIDED BY THE AVERAGE OF IN AND OUT TIMES 100

 PERCENT DISCREPANCY =           0.00     PERCENT DISCREPANCY =           0.00






 

        AG WELLS          PERIOD    5   STEP   2
 AG WELL      1   LAYER   1   ROW     6   COL     4   RATE     0.00000    
 AG WELL      2   LAYER   1   ROW     6   COL     5   RATE     0.00000    
 AG WELL      3   LAYER   1   ROW     7   COL     4   RATE     0.00000    
 AG WELL      4   LAYER   1   ROW     7   COL     5   RATE     0.00000    
 AG WELL      5   LAYER   1   ROW     8   COL     4   RATE     0.00000    
 AG WELL      6   LAYER   1   ROW     8   COL     5   RATE     0.00000    
 
 

   DIVERSION SEGMENTS     PERIOD    5   STEP   2
 SEGMENT      9   RATE    2.213197E-07
 
 

        SW IRRIGATION     PERIOD    5   STEP   2
 SEGMENT      9   ROW     6   COL     4   RATE    3.688735E-08
 SEGMENT      9   ROW     6   COL     5   RATE    3.688735E-08
 SEGMENT      9   ROW     7   COL     4   RATE    3.688735E-08
 SEGMENT      9   ROW     7   COL     5   RATE    3.688735E-08
 SEGMENT      9   ROW     8   COL     4   RATE    3.688735E-08
 SEGMENT      9   ROW     8   COL     5   RATE    3.688735E-08
 
 

        GW IRRIGATION     PERIOD    5   STEP   2
 AG WELL      1   ROW     6   COL     4   RATE     0.00000    
 AG WELL      2   ROW     6   COL     5   RATE     0.00000    
 AG WELL      3   ROW     7   COL     4   RATE     0.00000    
 AG WELL      4   ROW     7   COL     5   RATE     0.00000    
 AG WELL      5   ROW     8   COL     4   RATE     0.00000    
 AG WELL      6   ROW     8   COL     5   RATE     0.00000    
 
1
  VOLUMETRIC BUDGET FOR AGRICULTURAL FIELDS AT  END OF TIME STEP    2, STRESS PERIOD   5
  ------------------------------------------------------------------------------

     CUMULATIVE VOLUMES      L**3       RATES FOR THIS TIME STEP      L**3/T
     ------------------                 ------------------------

           IN:                                      IN:
           ---                                      ---
           AG WELLS      =       76629.8672             AG WELLS      =           0.0000
      DIVERSION SEGMENTS =      578240.1250        DIVERSION SEGMENTS =       2.2132E-07
           GW IRRIGATION =           0.0000             GW IRRIGATION =           0.0000
           SW IRRIGATION =           0.0000             SW IRRIGATION =           0.0000
        SYSTEM LOSSES GW =           0.0000          SYSTEM LOSSES GW =           0.0000
        SYSTEM LOSSES SW =           0.0000          SYSTEM LOSSES SW =           0.0000

                TOTAL IN =      654870.0000                  TOTAL IN =       2.2132E-07

          OUT:                                     OUT:
          ----                                     ----
           AG WELLS      =           0.0000             AG WELLS      =           0.0000
      DIVERSION SEGMENTS =           0.0000        DIVERSION SEGMENTS =           0.0000
           GW IRRIGATION =       76629.8672             GW IRRIGATION =           0.0000
           SW IRRIGATION =      578251.6875             SW IRRIGATION =       2.2132E-07
        SYSTEM LOSSES GW =           0.0000          SYSTEM LOSSES GW =           0.0000
        SYSTEM LOSSES SW =           0.0000          SYSTEM LOSSES SW =           0.0000

               TOTAL OUT =      654881.5625                 TOTAL OUT =       2.2132E-07

                IN - OUT =         -11.5625                  IN - OUT =      -4.4196E-12

     PERCENT DISCREPANCY =          -0.00         PERCENT DISCREPANCY =          -0.00



1
  VOLUMETRIC BUDGET FOR ENTIRE MODEL AT END OF TIME STEP    2, STRESS PERIOD   5
  ------------------------------------------------------------------------------

     CUMULATIVE VOLUMES      L**3       RATES FOR THIS TIME STEP      L**3/T
     ------------------                 ------------------------

           IN:                                      IN:
           ---                                      ---
             STORAGE     =     4675083.5000               STORAGE     =           1.4389
       CONSTANT HEAD     =           0.0000         CONSTANT HEAD     =           0.0000
     HEAD DEP BOUNDS     =     2346258.2500       HEAD DEP BOUNDS     =           0.2879
      STREAM LEAKAGE     =    95426240.0000        STREAM LEAKAGE     =          11.2877
        UZF RECHARGE     =       73223.9531          UZF RECHARGE     =           0.0000
               GW ET     =           0.0000                 GW ET     =           0.0000
     SURFACE LEAKAGE     =           0.0000       SURFACE LEAKAGE     =           0.0000
           AG WELLS      =           0.0000             AG WELLS      =           0.0000

                TOTAL IN =   102520808.0000                  TOTAL IN =          13.0145

          OUT:                                     OUT:
          ----                                     ----
             STORAGE     =    17798612.0000               STORAGE     =           1.5070
       CONSTANT HEAD     =           0.0000         CONSTANT HEAD     =           0.0000
     HEAD DEP BOUNDS     =     2348540.7500       HEAD DEP BOUNDS     =           0.2899
      STREAM LEAKAGE     =    82300776.0000        STREAM LEAKAGE     =          11.2176
        UZF RECHARGE     =           0.0000          UZF RECHARGE     =           0.0000
               GW ET     =           0.0000                 GW ET     =           0.0000
     SURFACE LEAKAGE     =           0.0000       SURFACE LEAKAGE     =           0.0000
           AG WELLS      =       76629.8672             AG WELLS      =           0.0000

               TOTAL OUT =   102524560.0000                 TOTAL OUT =          13.0145

                IN - OUT =       -3752.0000                  IN - OUT =      -1.7166E-05

     PERCENT DISCREPANCY =          -0.00         PERCENT DISCREPANCY =          -0.00






         TIME SUMMARY AT END OF TIME STEP    2 IN STRESS PERIOD    5
                    SECONDS     MINUTES      HOURS       DAYS        YEARS
                    -----------------------------------------------------------
   TIME STEP LENGTH  87667.      1461.1      24.352      1.0147     2.77799E-03
 STRESS PERIOD TIME 1.75333E+05  2922.2      48.704      2.0293     5.55598E-03
         TOTAL TIME 8.15173E+06 1.35862E+05  2264.4      94.349     0.25831    
1
 
 SOLVING FOR HEAD 
                                                   Max.-Head-Change                         Max.-Flux-Residual
  Residual-Control   Outer-Iter.   Inner-Iter.     Column Row Layer    Maximum-Head-Change  Column Row Layer    Maximum-Flux-Residual          L2-NORM 
          0                 1           2             4   13     1      -0.4967095470E-02       4   13    1        -0.2846207627E+00      0.5587026508E+00
          0                 2           2             4    7     1      -0.1159254343E-01       5    6    1        -0.6256420412E+00      0.1531170244E+01
          0                 3           2             4    7     1       0.1201983039E-01       5    6    1         0.6637947842E+00      0.1625650379E+01
          0                 4           2             4    7     1      -0.4782812660E-03       5    6    1        -0.2714920595E-01      0.6649039288E-01
          0                 5           1             4    7     1       0.5897411741E-05       5    6    1         0.3440640485E-03      0.8429961640E-03

    ------------------------------------------------
       NWT REQUIRED            5 OUTER ITERATIONS 
       AND A TOTAL OF          9 INNER ITERATIONS.
    ------------------------------------------------

 OUTPUT CONTROL FOR STRESS PERIOD    5   TIME STEP    3
    PRINT BUDGET
    SAVE BUDGET
 UBDSV1 SAVING "         STORAGE" ON UNIT 102 AT TIME STEP  3, STRESS PERIOD   5
 UBDSV2 SAVING "   CONSTANT HEAD" ON UNIT 102 AT TIME STEP  3, STRESS PERIOD   5
 UBDSV1 SAVING "FLOW RIGHT FACE " ON UNIT 102 AT TIME STEP  3, STRESS PERIOD   5
 UBDSV1 SAVING "FLOW FRONT FACE " ON UNIT 102 AT TIME STEP  3, STRESS PERIOD   5

  HEAD DEP BOUNDS   PERIOD    5   STEP     3
 BOUNDARY      1   LAYER   1   ROW    13   COL     1   RATE   -0.289802    
 BOUNDARY      2   LAYER   1   ROW    14   COL     9   RATE    0.287883    



 STREAM LISTING     PERIOD      5   STEP        3

 LAYER ROW COL. STREAM  RCH.  FLOW INTO     FLOW TO   FLOW OUT OF   OVRLND.     DIRECT     STREAM       STREAM     STREAM     STREAM   STREAMBED  STREAMBED
                SEG.NO.  NO.  STRM. RCH.    AQUIFER    STRM. RCH.    RUNOFF     PRECIP       ET          HEAD       DEPTH      WIDTH   CONDCTNC.   GRADIENT

   1    1    1     1     1    1.0500E+01  1.5271E-01   1.0347E+01  0.000E+00  0.000E+00  0.000E+00  1.09396E+03  9.109E-01  8.677E+00  3.905E-02  1.304E+00
   1    2    2     1     2    1.0347E+01  2.3504E-01   1.0112E+01  0.000E+00  0.000E+00  0.000E+00  1.08896E+03  9.059E-01  8.597E+00  6.018E-02  1.302E+00
   1    3    3     1     3    1.0112E+01  1.9904E-01   9.9132E+00  0.000E+00  0.000E+00  0.000E+00  1.08332E+03  9.003E-01  8.505E+00  5.103E-02  1.300E+00
   1    3    4     1     4    9.9132E+00  1.8195E-01   9.7312E+00  0.000E+00  0.000E+00  0.000E+00  1.07830E+03  8.947E-01  8.417E+00  4.672E-02  1.298E+00
   1    4    5     2     1    7.7312E+00  2.8007E-01   7.4512E+00  0.000E+00  0.000E+00  0.000E+00  1.07252E+03  5.907E-01  1.200E+01  7.800E-02  1.197E+00
   1    5    6     2     2    7.4512E+00  2.1474E-01   7.2364E+00  0.000E+00  0.000E+00  0.000E+00  1.06709E+03  5.790E-01  1.200E+01  6.000E-02  1.193E+00
   1    6    6     2     3    7.2364E+00  2.1413E-01   7.0223E+00  0.000E+00  0.000E+00  0.000E+00  1.06236E+03  5.688E-01  1.200E+01  6.000E-02  1.190E+00
   1    7    6     2     4    7.0223E+00  2.1351E-01   6.8088E+00  0.000E+00  0.000E+00  0.000E+00  1.05763E+03  5.585E-01  1.200E+01  6.000E-02  1.186E+00
   1    8    6     2     5    6.8088E+00  2.1289E-01   6.5959E+00  0.000E+00  0.000E+00  0.000E+00  1.05291E+03  5.481E-01  1.200E+01  6.000E-02  1.183E+00
   1    3    5     3     1    2.0000E+00  2.8252E-01   1.7175E+00  0.000E+00  0.000E+00  0.000E+00  1.07555E+03  1.909E+00  9.636E+00  7.227E-02  1.955E+00
   1    3    6     3     2    1.7175E+00  2.4905E-01   1.4684E+00  0.000E+00  0.000E+00  0.000E+00  1.07264E+03  1.727E+00  8.909E+00  6.682E-02  1.864E+00
   1    3    7     3     3    1.4684E+00  1.9718E-01   1.2712E+00  0.000E+00  0.000E+00  0.000E+00  1.06987E+03  1.555E+00  8.218E+00  5.547E-02  1.777E+00
   1    4    8     3     4    1.2712E+00  2.2567E-01   1.0456E+00  0.000E+00  0.000E+00  0.000E+00  1.06682E+03  1.364E+00  7.455E+00  6.709E-02  1.682E+00
   1    5    8     3     5    1.0456E+00  1.5790E-01   8.8768E-01  0.000E+00  0.000E+00  0.000E+00  1.06362E+03  1.164E+00  6.655E+00  4.991E-02  1.582E+00
   1    6    8     3     6    8.8768E-01  5.5980E-02   8.3170E-01  0.000E+00  0.000E+00  0.000E+00  1.06158E+03  1.036E+00  6.145E+00  1.844E-02  1.518E+00
   1    5   10     4     1    1.0000E+01  9.0919E-02   9.9091E+00  0.000E+00  0.000E+00  0.000E+00  1.07836E+03  6.368E-01  1.000E+01  2.500E-02  1.212E+00
   1    5    9     4     2    9.9091E+00  1.8158E-01   9.7275E+00  0.000E+00  0.000E+00  0.000E+00  1.07154E+03  6.315E-01  1.000E+01  5.000E-02  1.211E+00
   1    6    8     4     3    9.7275E+00  1.2689E-01   9.6006E+00  0.000E+00  0.000E+00  0.000E+00  1.06381E+03  6.256E-01  1.000E+01  3.500E-02  1.209E+00
   1    6    8     5     1    1.0432E+01  2.2686E-01   1.0205E+01  0.000E+00  0.000E+00  0.000E+00  1.05868E+03  6.790E-01  1.542E+01  6.166E-02  1.226E+00
   1    7    7     5     2    1.0205E+01  2.7894E-01   9.9265E+00  0.000E+00  0.000E+00  0.000E+00  1.05417E+03  6.732E-01  1.519E+01  7.594E-02  1.224E+00
   1    8    7     5     3    9.9265E+00  1.9221E-01   9.7343E+00  0.000E+00  0.000E+00  0.000E+00  1.04992E+03  6.676E-01  1.497E+01  5.241E-02  1.223E+00
   1    8    6     5     4    9.7343E+00  1.3577E-01   9.5985E+00  0.000E+00  0.000E+00  0.000E+00  1.04691E+03  6.637E-01  1.482E+01  3.706E-02  1.221E+00
   1    9    6     6     1    1.2474E+01  2.2801E-01   1.2246E+01  0.000E+00  0.000E+00  0.000E+00  1.04353E+03  8.002E-01  1.200E+01  6.000E-02  1.267E+00
   1   10    7     6     2    1.2246E+01  2.2748E-01   1.2019E+01  0.000E+00  0.000E+00  0.000E+00  1.03897E+03  7.913E-01  1.200E+01  6.000E-02  1.264E+00
   1   11    7     6     3    1.2019E+01  2.2694E-01   1.1792E+01  0.000E+00  0.000E+00  0.000E+00  1.03442E+03  7.824E-01  1.200E+01  6.000E-02  1.261E+00
   1   12    7     6     4    1.1792E+01  2.2640E-01   1.1566E+01  0.000E+00  0.000E+00  0.000E+00  1.02986E+03  7.734E-01  1.200E+01  6.000E-02  1.258E+00
   1   13    7     6     5    1.1566E+01 -4.2617E-02   1.1608E+01  0.000E+00  0.000E+00  0.000E+00  1.02668E+03  7.698E-01  1.200E+01  2.400E-01 -5.919E-02
   1   14    9     7     1    1.5000E+02  1.3670E+00   1.4863E+02  0.000E+00  0.000E+00  0.000E+00  1.03987E+03  2.288E+00  5.529E+01  5.593E-01  8.147E-01
   1   13    8     7     2    1.4863E+02  1.9170E+00   1.4672E+02  0.000E+00  0.000E+00  0.000E+00  1.03478E+03  2.279E+00  5.526E+01  6.148E-01  1.039E+00
   1   13    7     7     3    1.4672E+02  1.5817E+00   1.4513E+02  0.000E+00  0.000E+00  0.000E+00  1.02969E+03  2.270E+00  5.521E+01  5.584E-01  9.442E-01
   1   13    6     8     1    1.5674E+02  9.4443E-01   1.5580E+02  0.000E+00  0.000E+00  0.000E+00  1.02474E+03  2.860E+00  4.148E+01  4.227E-01  7.448E-01
   1   13    5     8     2    1.5580E+02  2.0001E-01   1.5560E+02  0.000E+00  0.000E+00  0.000E+00  1.01848E+03  2.856E+00  4.142E+01  4.221E-01  1.580E-01
   1   13    4     8     3    1.5560E+02 -2.5639E+00   1.5816E+02  0.000E+00  0.000E+00  0.000E+00  1.01224E+03  2.865E+00  4.154E+01  4.233E+00 -2.019E-01
   1   13    3     8     4    1.5816E+02 -3.8339E+00   1.6200E+02  0.000E+00  0.000E+00  0.000E+00  1.00601E+03  2.886E+00  4.185E+01  4.265E+00 -2.996E-01
   1   13    2     8     5    1.6200E+02 -2.8614E+00   1.6486E+02  0.000E+00  0.000E+00  0.000E+00  9.99784E+02  2.909E+00  4.218E+01  4.298E+00 -2.219E-01
   1   13    1     8     6    1.6486E+02 -2.1420E+00   1.6700E+02  0.000E+00  0.000E+00  0.000E+00  9.94800E+02  2.925E+00  4.242E+01  2.594E+00 -2.753E-01
   1    8    6     9     1    3.7200E+00  0.0000E+00   3.7200E+00  0.000E+00  0.000E+00  0.000E+00  1.08000E+03  1.252E+00  4.000E+00  0.000E+00  1.417E+00
   1    8    5     9     2    3.7200E+00  0.0000E+00   3.7200E+00  0.000E+00  0.000E+00  0.000E+00  1.07950E+03  1.252E+00  4.000E+00  0.000E+00  1.417E+00



 UBDSV3 SAVING "           GW ET" ON UNIT  61 AT TIME STEP  3, STRESS PERIOD   5
 UBDSV3 SAVING "    UZF RECHARGE" ON UNIT  61 AT TIME STEP  3, STRESS PERIOD   5
 UBDSV3 SAVING " SURFACE LEAKAGE" ON UNIT  61 AT TIME STEP  3, STRESS PERIOD   5
 UBDSV3 SAVING "       HORT+DUNN" ON UNIT  61 AT TIME STEP  3, STRESS PERIOD   5
 UBDSV3 SAVING "  STORAGE CHANGE" ON UNIT  61 AT TIME STEP  3, STRESS PERIOD   5


UNSATURATED ZONE PACKAGE VOLUMETRIC BUDGET FOR  TIME STEP     3 STRESS PERIOD    5
  ------------------------------------------------------------------------------



     CUMULATIVE VOLUMES      L**3       RATES FOR THIS TIME STEP      L**3/T
     ------------------                 ------------------------

           IN:                                      IN:
           ---                                      ---
        INFILTRATION =     7963899.1720          INFILTRATION =           4.5676

          OUT:                                     OUT:
          ----                                     ----
              UZF ET =     7806767.3983                UZF ET =           4.5675
        UZF RECHARGE =       73224.0000          UZF RECHARGE =       0.0000E+00

            IN - OUT =       83907.7737              IN - OUT =       7.4387E-05

          STORAGE:                                 STORAGE:
          --------                                 --------
      STORAGE CHANGE =       83907.1327        STORAGE CHANGE =       7.4323E-05

 PERCENT DISCREPANCY IS DIFFERENCE BETWEEN IN-OUT MINUS CHANGE IN STORAGE
 DIVIDED BY THE AVERAGE OF IN AND OUT TIMES 100

 PERCENT DISCREPANCY =           0.00     PERCENT DISCREPANCY =           0.00






 

        AG WELLS          PERIOD    5   STEP   3
 AG WELL      1   LAYER   1   ROW     6   COL     4   RATE     0.00000    
 AG WELL      2   LAYER   1   ROW     6   COL     5   RATE     0.00000    
 AG WELL      3   LAYER   1   ROW     7   COL     4   RATE     0.00000    
 AG WELL      4   LAYER   1   ROW     7   COL     5   RATE     0.00000    
 AG WELL      5   LAYER   1   ROW     8   COL     4   RATE     0.00000    
 AG WELL      6   LAYER   1   ROW     8   COL     5   RATE     0.00000    
 
 

   DIVERSION SEGMENTS     PERIOD    5   STEP   3
 SEGMENT      9   RATE     3.72000    
 
 

        SW IRRIGATION     PERIOD    5   STEP   3
 SEGMENT      9   ROW     6   COL     4   RATE    0.620012    
 SEGMENT      9   ROW     6   COL     5   RATE    0.620012    
 SEGMENT      9   ROW     7   COL     4   RATE    0.620012    
 SEGMENT      9   ROW     7   COL     5   RATE    0.620012    
 SEGMENT      9   ROW     8   COL     4   RATE    0.620012    
 SEGMENT      9   ROW     8   COL     5   RATE    0.620012    
 
 

        GW IRRIGATION     PERIOD    5   STEP   3
 AG WELL      1   ROW     6   COL     4   RATE     0.00000    
 AG WELL      2   ROW     6   COL     5   RATE     0.00000    
 AG WELL      3   ROW     7   COL     4   RATE     0.00000    
 AG WELL      4   ROW     7   COL     5   RATE     0.00000    
 AG WELL      5   ROW     8   COL     4   RATE     0.00000    
 AG WELL      6   ROW     8   COL     5   RATE     0.00000    
 
1
  VOLUMETRIC BUDGET FOR AGRICULTURAL FIELDS AT  END OF TIME STEP    3, STRESS PERIOD   5
  ------------------------------------------------------------------------------

     CUMULATIVE VOLUMES      L**3       RATES FOR THIS TIME STEP      L**3/T
     ------------------                 ------------------------

           IN:                                      IN:
           ---                                      ---
           AG WELLS      =       76629.8672             AG WELLS      =           0.0000
      DIVERSION SEGMENTS =      904360.1250        DIVERSION SEGMENTS =           3.7200
           GW IRRIGATION =           0.0000             GW IRRIGATION =           0.0000
           SW IRRIGATION =           0.0000             SW IRRIGATION =           0.0000
        SYSTEM LOSSES GW =           0.0000          SYSTEM LOSSES GW =           0.0000
        SYSTEM LOSSES SW =           0.0000          SYSTEM LOSSES SW =           0.0000

                TOTAL IN =      980990.0000                  TOTAL IN =           3.7200

          OUT:                                     OUT:
          ----                                     ----
           AG WELLS      =           0.0000             AG WELLS      =           0.0000
      DIVERSION SEGMENTS =           0.0000        DIVERSION SEGMENTS =           0.0000
           GW IRRIGATION =       76629.8672             GW IRRIGATION =           0.0000
           SW IRRIGATION =      904378.1875             SW IRRIGATION =           3.7201
        SYSTEM LOSSES GW =           0.0000          SYSTEM LOSSES GW =           0.0000
        SYSTEM LOSSES SW =           0.0000          SYSTEM LOSSES SW =           0.0000

               TOTAL OUT =      981008.0625                 TOTAL OUT =           3.7201

                IN - OUT =         -18.0625                  IN - OUT =      -7.4148E-05

     PERCENT DISCREPANCY =          -0.00         PERCENT DISCREPANCY =          -0.00



1
  VOLUMETRIC BUDGET FOR ENTIRE MODEL AT END OF TIME STEP    3, STRESS PERIOD   5
  ------------------------------------------------------------------------------

     CUMULATIVE VOLUMES      L**3       RATES FOR THIS TIME STEP      L**3/T
     ------------------                 ------------------------

           IN:                                      IN:
           ---                                      ---
             STORAGE     =     4824220.5000               STORAGE     =           1.7012
       CONSTANT HEAD     =           0.0000         CONSTANT HEAD     =           0.0000
     HEAD DEP BOUNDS     =     2371496.0000       HEAD DEP BOUNDS     =           0.2879
      STREAM LEAKAGE     =    96410256.0000        STREAM LEAKAGE     =          11.2245
        UZF RECHARGE     =       73223.9531          UZF RECHARGE     =           0.0000
               GW ET     =           0.0000                 GW ET     =           0.0000
     SURFACE LEAKAGE     =           0.0000       SURFACE LEAKAGE     =           0.0000
           AG WELLS      =           0.0000             AG WELLS      =           0.0000

                TOTAL IN =   103679200.0000                  TOTAL IN =          13.2136

          OUT:                                     OUT:
          ----                                     ----
             STORAGE     =    17928360.0000               STORAGE     =           1.4800
       CONSTANT HEAD     =           0.0000         CONSTANT HEAD     =           0.0000
     HEAD DEP BOUNDS     =     2373946.7500       HEAD DEP BOUNDS     =           0.2898
      STREAM LEAKAGE     =    83304016.0000        STREAM LEAKAGE     =          11.4438
        UZF RECHARGE     =           0.0000          UZF RECHARGE     =           0.0000
               GW ET     =           0.0000                 GW ET     =           0.0000
     SURFACE LEAKAGE     =           0.0000       SURFACE LEAKAGE     =           0.0000
           AG WELLS      =       76629.8672             AG WELLS      =           0.0000

               TOTAL OUT =   103682952.0000                 TOTAL OUT =          13.2136

                IN - OUT =       -3752.0000                  IN - OUT =       3.3379E-05

     PERCENT DISCREPANCY =          -0.00         PERCENT DISCREPANCY =           0.00






         TIME SUMMARY AT END OF TIME STEP    3 IN STRESS PERIOD    5
                    SECONDS     MINUTES      HOURS       DAYS        YEARS
                    -----------------------------------------------------------
   TIME STEP LENGTH  87667.      1461.1      24.352      1.0147     2.77799E-03
 STRESS PERIOD TIME 2.63000E+05  4383.3      73.056      3.0440     8.33397E-03
         TOTAL TIME 8.23939E+06 1.37323E+05  2288.7      95.363     0.26109    
1
 
 SOLVING FOR HEAD 
                                                   Max.-Head-Change                         Max.-Flux-Residual
  Residual-Control   Outer-Iter.   Inner-Iter.     Column Row Layer    Maximum-Head-Change  Column Row Layer    Maximum-Flux-Residual          L2-NORM 
          0                 1           2             2   13     1      -0.4443708976E-02       4   13    1        -0.2506231122E+00      0.5152822095E+00
          0                 2           2             4   13     1       0.4218904759E-03       4   13    1         0.2484095043E-01      0.5051722381E-01
          0                 3           2             4    7     1      -0.1154108873E-01       4    8    1        -0.6198642942E+00      0.1525269940E+01
          0                 4           2             4    7     1       0.1201654160E-01       4    8    1         0.6633967733E+00      0.1624973972E+01
          0                 5           2             4    7     1      -0.4782651895E-03       4    8    1        -0.2714048095E-01      0.6647838650E-01
          0                 6           1             4    7     1       0.5901591465E-05       4    7    1         0.3442172301E-03      0.8431309580E-03

    ------------------------------------------------
       NWT REQUIRED            6 OUTER ITERATIONS 
       AND A TOTAL OF         11 INNER ITERATIONS.
    ------------------------------------------------

 OUTPUT CONTROL FOR STRESS PERIOD    5   TIME STEP    4
    PRINT BUDGET
    SAVE BUDGET
 UBDSV1 SAVING "         STORAGE" ON UNIT 102 AT TIME STEP  4, STRESS PERIOD   5
 UBDSV2 SAVING "   CONSTANT HEAD" ON UNIT 102 AT TIME STEP  4, STRESS PERIOD   5
 UBDSV1 SAVING "FLOW RIGHT FACE " ON UNIT 102 AT TIME STEP  4, STRESS PERIOD   5
 UBDSV1 SAVING "FLOW FRONT FACE " ON UNIT 102 AT TIME STEP  4, STRESS PERIOD   5

  HEAD DEP BOUNDS   PERIOD    5   STEP     4
 BOUNDARY      1   LAYER   1   ROW    13   COL     1   RATE   -0.289687    
 BOUNDARY      2   LAYER   1   ROW    14   COL     9   RATE    0.287884    



 STREAM LISTING     PERIOD      5   STEP        4

 LAYER ROW COL. STREAM  RCH.  FLOW INTO     FLOW TO   FLOW OUT OF   OVRLND.     DIRECT     STREAM       STREAM     STREAM     STREAM   STREAMBED  STREAMBED
                SEG.NO.  NO.  STRM. RCH.    AQUIFER    STRM. RCH.    RUNOFF     PRECIP       ET          HEAD       DEPTH      WIDTH   CONDCTNC.   GRADIENT

   1    1    1     1     1    1.0500E+01  1.5271E-01   1.0347E+01  0.000E+00  0.000E+00  0.000E+00  1.09396E+03  9.109E-01  8.677E+00  3.905E-02  1.304E+00
   1    2    2     1     2    1.0347E+01  2.3504E-01   1.0112E+01  0.000E+00  0.000E+00  0.000E+00  1.08896E+03  9.059E-01  8.597E+00  6.018E-02  1.302E+00
   1    3    3     1     3    1.0112E+01  1.9904E-01   9.9132E+00  0.000E+00  0.000E+00  0.000E+00  1.08332E+03  9.003E-01  8.505E+00  5.103E-02  1.300E+00
   1    3    4     1     4    9.9132E+00  1.8195E-01   9.7312E+00  0.000E+00  0.000E+00  0.000E+00  1.07830E+03  8.947E-01  8.417E+00  4.672E-02  1.298E+00
   1    4    5     2     1    7.7312E+00  2.8007E-01   7.4512E+00  0.000E+00  0.000E+00  0.000E+00  1.07252E+03  5.907E-01  1.200E+01  7.800E-02  1.197E+00
   1    5    6     2     2    7.4512E+00  2.1474E-01   7.2364E+00  0.000E+00  0.000E+00  0.000E+00  1.06709E+03  5.790E-01  1.200E+01  6.000E-02  1.193E+00
   1    6    6     2     3    7.2364E+00  2.1413E-01   7.0223E+00  0.000E+00  0.000E+00  0.000E+00  1.06236E+03  5.688E-01  1.200E+01  6.000E-02  1.190E+00
   1    7    6     2     4    7.0223E+00  2.1351E-01   6.8088E+00  0.000E+00  0.000E+00  0.000E+00  1.05763E+03  5.585E-01  1.200E+01  6.000E-02  1.186E+00
   1    8    6     2     5    6.8088E+00  2.1289E-01   6.5959E+00  0.000E+00  0.000E+00  0.000E+00  1.05291E+03  5.481E-01  1.200E+01  6.000E-02  1.183E+00
   1    3    5     3     1    2.0000E+00  2.8252E-01   1.7175E+00  0.000E+00  0.000E+00  0.000E+00  1.07555E+03  1.909E+00  9.636E+00  7.227E-02  1.955E+00
   1    3    6     3     2    1.7175E+00  2.4905E-01   1.4684E+00  0.000E+00  0.000E+00  0.000E+00  1.07264E+03  1.727E+00  8.909E+00  6.682E-02  1.864E+00
   1    3    7     3     3    1.4684E+00  1.9718E-01   1.2712E+00  0.000E+00  0.000E+00  0.000E+00  1.06987E+03  1.555E+00  8.218E+00  5.547E-02  1.777E+00
   1    4    8     3     4    1.2712E+00  2.2567E-01   1.0456E+00  0.000E+00  0.000E+00  0.000E+00  1.06682E+03  1.364E+00  7.455E+00  6.709E-02  1.682E+00
   1    5    8     3     5    1.0456E+00  1.5790E-01   8.8768E-01  0.000E+00  0.000E+00  0.000E+00  1.06362E+03  1.164E+00  6.655E+00  4.991E-02  1.582E+00
   1    6    8     3     6    8.8768E-01  5.5980E-02   8.3170E-01  0.000E+00  0.000E+00  0.000E+00  1.06158E+03  1.036E+00  6.145E+00  1.844E-02  1.518E+00
   1    5   10     4     1    1.0000E+01  9.0919E-02   9.9091E+00  0.000E+00  0.000E+00  0.000E+00  1.07836E+03  6.368E-01  1.000E+01  2.500E-02  1.212E+00
   1    5    9     4     2    9.9091E+00  1.8158E-01   9.7275E+00  0.000E+00  0.000E+00  0.000E+00  1.07154E+03  6.315E-01  1.000E+01  5.000E-02  1.211E+00
   1    6    8     4     3    9.7275E+00  1.2689E-01   9.6006E+00  0.000E+00  0.000E+00  0.000E+00  1.06381E+03  6.256E-01  1.000E+01  3.500E-02  1.209E+00
   1    6    8     5     1    1.0432E+01  2.2686E-01   1.0205E+01  0.000E+00  0.000E+00  0.000E+00  1.05868E+03  6.790E-01  1.542E+01  6.166E-02  1.226E+00
   1    7    7     5     2    1.0205E+01  2.7894E-01   9.9265E+00  0.000E+00  0.000E+00  0.000E+00  1.05417E+03  6.732E-01  1.519E+01  7.594E-02  1.224E+00
   1    8    7     5     3    9.9265E+00  1.9221E-01   9.7343E+00  0.000E+00  0.000E+00  0.000E+00  1.04992E+03  6.676E-01  1.497E+01  5.241E-02  1.223E+00
   1    8    6     5     4    9.7343E+00  1.3577E-01   9.5985E+00  0.000E+00  0.000E+00  0.000E+00  1.04691E+03  6.637E-01  1.482E+01  3.706E-02  1.221E+00
   1    9    6     6     1    1.2474E+01  2.2801E-01   1.2246E+01  0.000E+00  0.000E+00  0.000E+00  1.04353E+03  8.002E-01  1.200E+01  6.000E-02  1.267E+00
   1   10    7     6     2    1.2246E+01  2.2748E-01   1.2019E+01  0.000E+00  0.000E+00  0.000E+00  1.03897E+03  7.913E-01  1.200E+01  6.000E-02  1.264E+00
   1   11    7     6     3    1.2019E+01  2.2694E-01   1.1792E+01  0.000E+00  0.000E+00  0.000E+00  1.03442E+03  7.824E-01  1.200E+01  6.000E-02  1.261E+00
   1   12    7     6     4    1.1792E+01  2.2640E-01   1.1566E+01  0.000E+00  0.000E+00  0.000E+00  1.02986E+03  7.734E-01  1.200E+01  6.000E-02  1.258E+00
   1   13    7     6     5    1.1566E+01 -4.2502E-02   1.1608E+01  0.000E+00  0.000E+00  0.000E+00  1.02668E+03  7.698E-01  1.200E+01  2.400E-01 -5.903E-02
   1   14    9     7     1    1.5000E+02  1.3670E+00   1.4863E+02  0.000E+00  0.000E+00  0.000E+00  1.03987E+03  2.288E+00  5.529E+01  5.593E-01  8.147E-01
   1   13    8     7     2    1.4863E+02  1.9170E+00   1.4672E+02  0.000E+00  0.000E+00  0.000E+00  1.03478E+03  2.279E+00  5.526E+01  6.148E-01  1.039E+00
   1   13    7     7     3    1.4672E+02  1.5820E+00   1.4513E+02  0.000E+00  0.000E+00  0.000E+00  1.02969E+03  2.270E+00  5.521E+01  5.584E-01  9.443E-01
   1   13    6     8     1    1.5674E+02  9.4483E-01   1.5580E+02  0.000E+00  0.000E+00  0.000E+00  1.02474E+03  2.860E+00  4.148E+01  4.227E-01  7.451E-01
   1   13    5     8     2    1.5580E+02  2.0029E-01   1.5560E+02  0.000E+00  0.000E+00  0.000E+00  1.01848E+03  2.856E+00  4.142E+01  4.221E-01  1.582E-01
   1   13    4     8     3    1.5560E+02 -2.5418E+00   1.5814E+02  0.000E+00  0.000E+00  0.000E+00  1.01224E+03  2.865E+00  4.154E+01  4.233E+00 -2.002E-01
   1   13    3     8     4    1.5814E+02 -3.8140E+00   1.6195E+02  0.000E+00  0.000E+00  0.000E+00  1.00601E+03  2.886E+00  4.185E+01  4.265E+00 -2.981E-01
   1   13    2     8     5    1.6195E+02 -2.8398E+00   1.6479E+02  0.000E+00  0.000E+00  0.000E+00  9.99784E+02  2.909E+00  4.217E+01  4.298E+00 -2.203E-01
   1   13    1     8     6    1.6479E+02 -2.1350E+00   1.6693E+02  0.000E+00  0.000E+00  0.000E+00  9.94800E+02  2.925E+00  4.241E+01  2.593E+00 -2.744E-01
   1    8    6     9     1    3.7200E+00  0.0000E+00   3.7200E+00  0.000E+00  0.000E+00  0.000E+00  1.08000E+03  1.252E+00  4.000E+00  0.000E+00  1.417E+00
   1    8    5     9     2    3.7200E+00  0.0000E+00   3.7200E+00  0.000E+00  0.000E+00  0.000E+00  1.07950E+03  1.252E+00  4.000E+00  0.000E+00  1.417E+00



 UBDSV3 SAVING "           GW ET" ON UNIT  61 AT TIME STEP  4, STRESS PERIOD   5
 UBDSV3 SAVING "    UZF RECHARGE" ON UNIT  61 AT TIME STEP  4, STRESS PERIOD   5
 UBDSV3 SAVING " SURFACE LEAKAGE" ON UNIT  61 AT TIME STEP  4, STRESS PERIOD   5
 UBDSV3 SAVING "       HORT+DUNN" ON UNIT  61 AT TIME STEP  4, STRESS PERIOD   5
 UBDSV3 SAVING "  STORAGE CHANGE" ON UNIT  61 AT TIME STEP  4, STRESS PERIOD   5


UNSATURATED ZONE PACKAGE VOLUMETRIC BUDGET FOR  TIME STEP     4 STRESS PERIOD    5
  ------------------------------------------------------------------------------



     CUMULATIVE VOLUMES      L**3       RATES FOR THIS TIME STEP      L**3/T
     ------------------                 ------------------------

           IN:                                      IN:
           ---                                      ---
        INFILTRATION =     8364323.0507          INFILTRATION =           4.5676

          OUT:                                     OUT:
          ----                                     ----
              UZF ET =     8207184.8981                UZF ET =           4.5675
        UZF RECHARGE =       73224.0000          UZF RECHARGE =       0.0000E+00

            IN - OUT =       83914.1526              IN - OUT =       7.2658E-05

          STORAGE:                                 STORAGE:
          --------                                 --------
      STORAGE CHANGE =       83913.5291        STORAGE CHANGE =       7.2963E-05

 PERCENT DISCREPANCY IS DIFFERENCE BETWEEN IN-OUT MINUS CHANGE IN STORAGE
 DIVIDED BY THE AVERAGE OF IN AND OUT TIMES 100

 PERCENT DISCREPANCY =           0.00     PERCENT DISCREPANCY =           0.00






 

        AG WELLS          PERIOD    5   STEP   4
 AG WELL      1   LAYER   1   ROW     6   COL     4   RATE     0.00000    
 AG WELL      2   LAYER   1   ROW     6   COL     5   RATE     0.00000    
 AG WELL      3   LAYER   1   ROW     7   COL     4   RATE     0.00000    
 AG WELL      4   LAYER   1   ROW     7   COL     5   RATE     0.00000    
 AG WELL      5   LAYER   1   ROW     8   COL     4   RATE     0.00000    
 AG WELL      6   LAYER   1   ROW     8   COL     5   RATE     0.00000    
 
 

   DIVERSION SEGMENTS     PERIOD    5   STEP   4
 SEGMENT      9   RATE     3.72000    
 
 

        SW IRRIGATION     PERIOD    5   STEP   4
 SEGMENT      9   ROW     6   COL     4   RATE    0.620012    
 SEGMENT      9   ROW     6   COL     5   RATE    0.620012    
 SEGMENT      9   ROW     7   COL     4   RATE    0.620012    
 SEGMENT      9   ROW     7   COL     5   RATE    0.620012    
 SEGMENT      9   ROW     8   COL     4   RATE    0.620012    
 SEGMENT      9   ROW     8   COL     5   RATE    0.620012    
 
 

        GW IRRIGATION     PERIOD    5   STEP   4
 AG WELL      1   ROW     6   COL     4   RATE     0.00000    
 AG WELL      2   ROW     6   COL     5   RATE     0.00000    
 AG WELL      3   ROW     7   COL     4   RATE     0.00000    
 AG WELL      4   ROW     7   COL     5   RATE     0.00000    
 AG WELL      5   ROW     8   COL     4   RATE     0.00000    
 AG WELL      6   ROW     8   COL     5   RATE     0.00000    
 
1
  VOLUMETRIC BUDGET FOR AGRICULTURAL FIELDS AT  END OF TIME STEP    4, STRESS PERIOD   5
  ------------------------------------------------------------------------------

     CUMULATIVE VOLUMES      L**3       RATES FOR THIS TIME STEP      L**3/T
     ------------------                 ------------------------

           IN:                                      IN:
           ---                                      ---
           AG WELLS      =       76629.8672             AG WELLS      =           0.0000
      DIVERSION SEGMENTS =     1230480.0000        DIVERSION SEGMENTS =           3.7200
           GW IRRIGATION =           0.0000             GW IRRIGATION =           0.0000
           SW IRRIGATION =           0.0000             SW IRRIGATION =           0.0000
        SYSTEM LOSSES GW =           0.0000          SYSTEM LOSSES GW =           0.0000
        SYSTEM LOSSES SW =           0.0000          SYSTEM LOSSES SW =           0.0000

                TOTAL IN =     1307109.8750                  TOTAL IN =           3.7200

          OUT:                                     OUT:
          ----                                     ----
           AG WELLS      =           0.0000             AG WELLS      =           0.0000
      DIVERSION SEGMENTS =           0.0000        DIVERSION SEGMENTS =           0.0000
           GW IRRIGATION =       76629.8672             GW IRRIGATION =           0.0000
           SW IRRIGATION =     1230504.5000             SW IRRIGATION =           3.7201
        SYSTEM LOSSES GW =           0.0000          SYSTEM LOSSES GW =           0.0000
        SYSTEM LOSSES SW =           0.0000          SYSTEM LOSSES SW =           0.0000

               TOTAL OUT =     1307134.3750                 TOTAL OUT =           3.7201

                IN - OUT =         -24.5000                  IN - OUT =      -7.4148E-05

     PERCENT DISCREPANCY =          -0.00         PERCENT DISCREPANCY =          -0.00



1
  VOLUMETRIC BUDGET FOR ENTIRE MODEL AT END OF TIME STEP    4, STRESS PERIOD   5
  ------------------------------------------------------------------------------

     CUMULATIVE VOLUMES      L**3       RATES FOR THIS TIME STEP      L**3/T
     ------------------                 ------------------------

           IN:                                      IN:
           ---                                      ---
             STORAGE     =     4965938.0000               STORAGE     =           1.6166
       CONSTANT HEAD     =           0.0000         CONSTANT HEAD     =           0.0000
     HEAD DEP BOUNDS     =     2396733.7500       HEAD DEP BOUNDS     =           0.2879
      STREAM LEAKAGE     =    97394352.0000        STREAM LEAKAGE     =          11.2255
        UZF RECHARGE     =       73223.9531          UZF RECHARGE     =           0.0000
               GW ET     =           0.0000                 GW ET     =           0.0000
     SURFACE LEAKAGE     =           0.0000       SURFACE LEAKAGE     =           0.0000
           AG WELLS      =           0.0000             AG WELLS      =           0.0000

                TOTAL IN =   104830248.0000                  TOTAL IN =          13.1299

          OUT:                                     OUT:
          ----                                     ----
             STORAGE     =    18056974.0000               STORAGE     =           1.4671
       CONSTANT HEAD     =           0.0000         CONSTANT HEAD     =           0.0000
     HEAD DEP BOUNDS     =     2399342.7500       HEAD DEP BOUNDS     =           0.2897
      STREAM LEAKAGE     =    84301056.0000        STREAM LEAKAGE     =          11.3731
        UZF RECHARGE     =           0.0000          UZF RECHARGE     =           0.0000
               GW ET     =           0.0000                 GW ET     =           0.0000
     SURFACE LEAKAGE     =           0.0000       SURFACE LEAKAGE     =           0.0000
           AG WELLS      =       76629.8672             AG WELLS      =           0.0000

               TOTAL OUT =   104834008.0000                 TOTAL OUT =          13.1299

                IN - OUT =       -3760.0000                  IN - OUT =       3.4332E-05

     PERCENT DISCREPANCY =          -0.00         PERCENT DISCREPANCY =           0.00






         TIME SUMMARY AT END OF TIME STEP    4 IN STRESS PERIOD    5
                    SECONDS     MINUTES      HOURS       DAYS        YEARS
                    -----------------------------------------------------------
   TIME STEP LENGTH  87667.      1461.1      24.352      1.0147     2.77799E-03
 STRESS PERIOD TIME 3.50667E+05  5844.4      97.407      4.0586     1.11120E-02
         TOTAL TIME 8.32706E+06 1.38784E+05  2313.1      96.378     0.26387    
1
 
 SOLVING FOR HEAD 
                                                   Max.-Head-Change                         Max.-Flux-Residual
  Residual-Control   Outer-Iter.   Inner-Iter.     Column Row Layer    Maximum-Head-Change  Column Row Layer    Maximum-Flux-Residual          L2-NORM 
          0                 1           2             2   13     1      -0.4022676146E-02       2   13    1        -0.2259394012E+00      0.4765151917E+00
          0                 2           2             2   13     1       0.3758293077E-03       4   13    1         0.2179435025E-01      0.4676064304E-01
          0                 3           2             4    7     1      -0.1154105873E-01       4    8    1        -0.6198636337E+00      0.1525270944E+01
          0                 4           2             4    7     1       0.1201653738E-01       4    8    1         0.6633966076E+00      0.1624973966E+01
          0                 5           2             4    7     1      -0.4782650210E-03       4    8    1        -0.2714047417E-01      0.6647840704E-01
          0                 6           1             4    7     1       0.5901589224E-05       4    7    1         0.3442171017E-03      0.8431291788E-03

    ------------------------------------------------
       NWT REQUIRED            6 OUTER ITERATIONS 
       AND A TOTAL OF         11 INNER ITERATIONS.
    ------------------------------------------------

 NO OUTPUT CONTROL FOR STRESS PERIOD    5   TIME STEP    5
 
 SOLVING FOR HEAD 
                                                   Max.-Head-Change                         Max.-Flux-Residual
  Residual-Control   Outer-Iter.   Inner-Iter.     Column Row Layer    Maximum-Head-Change  Column Row Layer    Maximum-Flux-Residual          L2-NORM 
          0                 1           2             2   13     1      -0.3632353559E-02       2   13    1        -0.2039865896E+00      0.4420484687E+00
          0                 2           2             2   13     1       0.3395391628E-03       2   13    1         0.1960063519E-01      0.4342933897E-01
          0                 3           2             4    7     1      -0.1154102773E-01       4    8    1        -0.6198629107E+00      0.1525272044E+01
          0                 4           2             4    7     1       0.1201653092E-01       4    8    1         0.6633963184E+00      0.1624973349E+01
          0                 5           2             4    7     1      -0.4782647642E-03       4    8    1        -0.2714046234E-01      0.6647806128E-01
          0                 6           1             4    7     1       0.5901586312E-05       4    7    1         0.3442169229E-03      0.8431576497E-03

    ------------------------------------------------
       NWT REQUIRED            6 OUTER ITERATIONS 
       AND A TOTAL OF         11 INNER ITERATIONS.
    ------------------------------------------------

 OUTPUT CONTROL FOR STRESS PERIOD    5   TIME STEP    6
    PRINT BUDGET
    SAVE BUDGET
 UBDSV1 SAVING "         STORAGE" ON UNIT 102 AT TIME STEP  6, STRESS PERIOD   5
 UBDSV2 SAVING "   CONSTANT HEAD" ON UNIT 102 AT TIME STEP  6, STRESS PERIOD   5
 UBDSV1 SAVING "FLOW RIGHT FACE " ON UNIT 102 AT TIME STEP  6, STRESS PERIOD   5
 UBDSV1 SAVING "FLOW FRONT FACE " ON UNIT 102 AT TIME STEP  6, STRESS PERIOD   5

  HEAD DEP BOUNDS   PERIOD    5   STEP     6
 BOUNDARY      1   LAYER   1   ROW    13   COL     1   RATE   -0.289471    
 BOUNDARY      2   LAYER   1   ROW    14   COL     9   RATE    0.287886    



 STREAM LISTING     PERIOD      5   STEP        6

 LAYER ROW COL. STREAM  RCH.  FLOW INTO     FLOW TO   FLOW OUT OF   OVRLND.     DIRECT     STREAM       STREAM     STREAM     STREAM   STREAMBED  STREAMBED
                SEG.NO.  NO.  STRM. RCH.    AQUIFER    STRM. RCH.    RUNOFF     PRECIP       ET          HEAD       DEPTH      WIDTH   CONDCTNC.   GRADIENT

   1    1    1     1     1    1.0500E+01  1.5271E-01   1.0347E+01  0.000E+00  0.000E+00  0.000E+00  1.09396E+03  9.109E-01  8.677E+00  3.905E-02  1.304E+00
   1    2    2     1     2    1.0347E+01  2.3505E-01   1.0112E+01  0.000E+00  0.000E+00  0.000E+00  1.08896E+03  9.059E-01  8.597E+00  6.018E-02  1.302E+00
   1    3    3     1     3    1.0112E+01  1.9904E-01   9.9132E+00  0.000E+00  0.000E+00  0.000E+00  1.08332E+03  9.003E-01  8.505E+00  5.103E-02  1.300E+00
   1    3    4     1     4    9.9132E+00  1.8195E-01   9.7313E+00  0.000E+00  0.000E+00  0.000E+00  1.07830E+03  8.947E-01  8.417E+00  4.672E-02  1.298E+00
   1    4    5     2     1    7.7313E+00  2.8007E-01   7.4512E+00  0.000E+00  0.000E+00  0.000E+00  1.07252E+03  5.907E-01  1.200E+01  7.800E-02  1.197E+00
   1    5    6     2     2    7.4512E+00  2.1474E-01   7.2365E+00  0.000E+00  0.000E+00  0.000E+00  1.06709E+03  5.790E-01  1.200E+01  6.000E-02  1.193E+00
   1    6    6     2     3    7.2365E+00  2.1413E-01   7.0224E+00  0.000E+00  0.000E+00  0.000E+00  1.06236E+03  5.688E-01  1.200E+01  6.000E-02  1.190E+00
   1    7    6     2     4    7.0224E+00  2.1351E-01   6.8088E+00  0.000E+00  0.000E+00  0.000E+00  1.05763E+03  5.585E-01  1.200E+01  6.000E-02  1.186E+00
   1    8    6     2     5    6.8088E+00  2.1289E-01   6.5960E+00  0.000E+00  0.000E+00  0.000E+00  1.05291E+03  5.481E-01  1.200E+01  6.000E-02  1.183E+00
   1    3    5     3     1    2.0000E+00  2.8252E-01   1.7175E+00  0.000E+00  0.000E+00  0.000E+00  1.07555E+03  1.909E+00  9.636E+00  7.227E-02  1.955E+00
   1    3    6     3     2    1.7175E+00  2.4905E-01   1.4684E+00  0.000E+00  0.000E+00  0.000E+00  1.07264E+03  1.727E+00  8.909E+00  6.682E-02  1.864E+00
   1    3    7     3     3    1.4684E+00  1.9718E-01   1.2712E+00  0.000E+00  0.000E+00  0.000E+00  1.06987E+03  1.555E+00  8.218E+00  5.547E-02  1.777E+00
   1    4    8     3     4    1.2712E+00  2.2567E-01   1.0456E+00  0.000E+00  0.000E+00  0.000E+00  1.06682E+03  1.364E+00  7.455E+00  6.709E-02  1.682E+00
   1    5    8     3     5    1.0456E+00  1.5790E-01   8.8768E-01  0.000E+00  0.000E+00  0.000E+00  1.06362E+03  1.164E+00  6.655E+00  4.991E-02  1.582E+00
   1    6    8     3     6    8.8768E-01  5.5980E-02   8.3170E-01  0.000E+00  0.000E+00  0.000E+00  1.06158E+03  1.036E+00  6.145E+00  1.844E-02  1.518E+00
   1    5   10     4     1    1.0000E+01  9.0919E-02   9.9091E+00  0.000E+00  0.000E+00  0.000E+00  1.07836E+03  6.368E-01  1.000E+01  2.500E-02  1.212E+00
   1    5    9     4     2    9.9091E+00  1.8158E-01   9.7275E+00  0.000E+00  0.000E+00  0.000E+00  1.07154E+03  6.315E-01  1.000E+01  5.000E-02  1.211E+00
   1    6    8     4     3    9.7275E+00  1.2689E-01   9.6006E+00  0.000E+00  0.000E+00  0.000E+00  1.06381E+03  6.256E-01  1.000E+01  3.500E-02  1.209E+00
   1    6    8     5     1    1.0432E+01  2.2686E-01   1.0205E+01  0.000E+00  0.000E+00  0.000E+00  1.05868E+03  6.790E-01  1.542E+01  6.166E-02  1.226E+00
   1    7    7     5     2    1.0205E+01  2.7894E-01   9.9265E+00  0.000E+00  0.000E+00  0.000E+00  1.05417E+03  6.732E-01  1.519E+01  7.594E-02  1.224E+00
   1    8    7     5     3    9.9265E+00  1.9221E-01   9.7343E+00  0.000E+00  0.000E+00  0.000E+00  1.04992E+03  6.676E-01  1.497E+01  5.241E-02  1.223E+00
   1    8    6     5     4    9.7343E+00  1.3577E-01   9.5985E+00  0.000E+00  0.000E+00  0.000E+00  1.04691E+03  6.637E-01  1.482E+01  3.706E-02  1.221E+00
   1    9    6     6     1    1.2474E+01  2.2801E-01   1.2246E+01  0.000E+00  0.000E+00  0.000E+00  1.04353E+03  8.002E-01  1.200E+01  6.000E-02  1.267E+00
   1   10    7     6     2    1.2246E+01  2.2748E-01   1.2019E+01  0.000E+00  0.000E+00  0.000E+00  1.03897E+03  7.913E-01  1.200E+01  6.000E-02  1.264E+00
   1   11    7     6     3    1.2019E+01  2.2694E-01   1.1792E+01  0.000E+00  0.000E+00  0.000E+00  1.03442E+03  7.824E-01  1.200E+01  6.000E-02  1.261E+00
   1   12    7     6     4    1.1792E+01  2.2640E-01   1.1566E+01  0.000E+00  0.000E+00  0.000E+00  1.02986E+03  7.734E-01  1.200E+01  6.000E-02  1.258E+00
   1   13    7     6     5    1.1566E+01 -4.2279E-02   1.1608E+01  0.000E+00  0.000E+00  0.000E+00  1.02668E+03  7.697E-01  1.200E+01  2.400E-01 -5.872E-02
   1   14    9     7     1    1.5000E+02  1.3671E+00   1.4863E+02  0.000E+00  0.000E+00  0.000E+00  1.03987E+03  2.288E+00  5.529E+01  5.593E-01  8.148E-01
   1   13    8     7     2    1.4863E+02  1.9169E+00   1.4672E+02  0.000E+00  0.000E+00  0.000E+00  1.03478E+03  2.279E+00  5.526E+01  6.148E-01  1.039E+00
   1   13    7     7     3    1.4672E+02  1.5825E+00   1.4513E+02  0.000E+00  0.000E+00  0.000E+00  1.02969E+03  2.270E+00  5.521E+01  5.584E-01  9.446E-01
   1   13    6     8     1    1.5674E+02  9.4559E-01   1.5580E+02  0.000E+00  0.000E+00  0.000E+00  1.02474E+03  2.860E+00  4.148E+01  4.227E-01  7.458E-01
   1   13    5     8     2    1.5580E+02  2.0089E-01   1.5560E+02  0.000E+00  0.000E+00  0.000E+00  1.01848E+03  2.856E+00  4.142E+01  4.221E-01  1.587E-01
   1   13    4     8     3    1.5560E+02 -2.5034E+00   1.5810E+02  0.000E+00  0.000E+00  0.000E+00  1.01224E+03  2.864E+00  4.153E+01  4.232E+00 -1.972E-01
   1   13    3     8     4    1.5810E+02 -3.7787E+00   1.6188E+02  0.000E+00  0.000E+00  0.000E+00  1.00601E+03  2.886E+00  4.184E+01  4.264E+00 -2.954E-01
   1   13    2     8     5    1.6188E+02 -2.8012E+00   1.6468E+02  0.000E+00  0.000E+00  0.000E+00  9.99783E+02  2.908E+00  4.216E+01  4.297E+00 -2.173E-01
   1   13    1     8     6    1.6468E+02 -2.1218E+00   1.6680E+02  0.000E+00  0.000E+00  0.000E+00  9.94799E+02  2.924E+00  4.240E+01  2.593E+00 -2.728E-01
   1    8    6     9     1    3.7200E+00  0.0000E+00   3.7200E+00  0.000E+00  0.000E+00  0.000E+00  1.08000E+03  1.252E+00  4.000E+00  0.000E+00  1.417E+00
   1    8    5     9     2    3.7200E+00  0.0000E+00   3.7200E+00  0.000E+00  0.000E+00  0.000E+00  1.07950E+03  1.252E+00  4.000E+00  0.000E+00  1.417E+00



 UBDSV3 SAVING "           GW ET" ON UNIT  61 AT TIME STEP  6, STRESS PERIOD   5
 UBDSV3 SAVING "    UZF RECHARGE" ON UNIT  61 AT TIME STEP  6, STRESS PERIOD   5
 UBDSV3 SAVING " SURFACE LEAKAGE" ON UNIT  61 AT TIME STEP  6, STRESS PERIOD   5
 UBDSV3 SAVING "       HORT+DUNN" ON UNIT  61 AT TIME STEP  6, STRESS PERIOD   5
 UBDSV3 SAVING "  STORAGE CHANGE" ON UNIT  61 AT TIME STEP  6, STRESS PERIOD   5


UNSATURATED ZONE PACKAGE VOLUMETRIC BUDGET FOR  TIME STEP     6 STRESS PERIOD    5
  ------------------------------------------------------------------------------



     CUMULATIVE VOLUMES      L**3       RATES FOR THIS TIME STEP      L**3/T
     ------------------                 ------------------------

           IN:                                      IN:
           ---                                      ---
        INFILTRATION =     9165170.5972          INFILTRATION =           4.5676

          OUT:                                     OUT:
          ----                                     ----
              UZF ET =     9008019.8586                UZF ET =           4.5675
        UZF RECHARGE =       73224.0000          UZF RECHARGE =       0.0000E+00

            IN - OUT =       83926.7386              IN - OUT =       7.1168E-05

          STORAGE:                                 STORAGE:
          --------                                 --------
      STORAGE CHANGE =       83926.0722        STORAGE CHANGE =       7.0858E-05

 PERCENT DISCREPANCY IS DIFFERENCE BETWEEN IN-OUT MINUS CHANGE IN STORAGE
 DIVIDED BY THE AVERAGE OF IN AND OUT TIMES 100

 PERCENT DISCREPANCY =           0.00     PERCENT DISCREPANCY =           0.00






 

        AG WELLS          PERIOD    5   STEP   6
 AG WELL      1   LAYER   1   ROW     6   COL     4   RATE     0.00000    
 AG WELL      2   LAYER   1   ROW     6   COL     5   RATE     0.00000    
 AG WELL      3   LAYER   1   ROW     7   COL     4   RATE     0.00000    
 AG WELL      4   LAYER   1   ROW     7   COL     5   RATE     0.00000    
 AG WELL      5   LAYER   1   ROW     8   COL     4   RATE     0.00000    
 AG WELL      6   LAYER   1   ROW     8   COL     5   RATE     0.00000    
 
 

   DIVERSION SEGMENTS     PERIOD    5   STEP   6
 SEGMENT      9   RATE     3.72000    
 
 

        SW IRRIGATION     PERIOD    5   STEP   6
 SEGMENT      9   ROW     6   COL     4   RATE    0.620012    
 SEGMENT      9   ROW     6   COL     5   RATE    0.620012    
 SEGMENT      9   ROW     7   COL     4   RATE    0.620012    
 SEGMENT      9   ROW     7   COL     5   RATE    0.620012    
 SEGMENT      9   ROW     8   COL     4   RATE    0.620012    
 SEGMENT      9   ROW     8   COL     5   RATE    0.620012    
 
 

        GW IRRIGATION     PERIOD    5   STEP   6
 AG WELL      1   ROW     6   COL     4   RATE     0.00000    
 AG WELL      2   ROW     6   COL     5   RATE     0.00000    
 AG WELL      3   ROW     7   COL     4   RATE     0.00000    
 AG WELL      4   ROW     7   COL     5   RATE     0.00000    
 AG WELL      5   ROW     8   COL     4   RATE     0.00000    
 AG WELL      6   ROW     8   COL     5   RATE     0.00000    
 
1
  VOLUMETRIC BUDGET FOR AGRICULTURAL FIELDS AT  END OF TIME STEP    6, STRESS PERIOD   5
  ------------------------------------------------------------------------------

     CUMULATIVE VOLUMES      L**3       RATES FOR THIS TIME STEP      L**3/T
     ------------------                 ------------------------

           IN:                                      IN:
           ---                                      ---
           AG WELLS      =       76629.8672             AG WELLS      =           0.0000
      DIVERSION SEGMENTS =     1882719.5000        DIVERSION SEGMENTS =           3.7200
           GW IRRIGATION =           0.0000             GW IRRIGATION =           0.0000
           SW IRRIGATION =           0.0000             SW IRRIGATION =           0.0000
        SYSTEM LOSSES GW =           0.0000          SYSTEM LOSSES GW =           0.0000
        SYSTEM LOSSES SW =           0.0000          SYSTEM LOSSES SW =           0.0000

                TOTAL IN =     1959349.3750                  TOTAL IN =           3.7200

          OUT:                                     OUT:
          ----                                     ----
           AG WELLS      =           0.0000             AG WELLS      =           0.0000
      DIVERSION SEGMENTS =           0.0000        DIVERSION SEGMENTS =           0.0000
           GW IRRIGATION =       76629.8672             GW IRRIGATION =           0.0000
           SW IRRIGATION =     1882757.0000             SW IRRIGATION =           3.7201
        SYSTEM LOSSES GW =           0.0000          SYSTEM LOSSES GW =           0.0000
        SYSTEM LOSSES SW =           0.0000          SYSTEM LOSSES SW =           0.0000

               TOTAL OUT =     1959386.8750                 TOTAL OUT =           3.7201

                IN - OUT =         -37.5000                  IN - OUT =      -7.4148E-05

     PERCENT DISCREPANCY =          -0.00         PERCENT DISCREPANCY =          -0.00



1
  VOLUMETRIC BUDGET FOR ENTIRE MODEL AT END OF TIME STEP    6, STRESS PERIOD   5
  ------------------------------------------------------------------------------

     CUMULATIVE VOLUMES      L**3       RATES FOR THIS TIME STEP      L**3/T
     ------------------                 ------------------------

           IN:                                      IN:
           ---                                      ---
             STORAGE     =     5229232.0000               STORAGE     =           1.4653
       CONSTANT HEAD     =           0.0000         CONSTANT HEAD     =           0.0000
     HEAD DEP BOUNDS     =     2447209.7500       HEAD DEP BOUNDS     =           0.2879
      STREAM LEAKAGE     =    99362784.0000        STREAM LEAKAGE     =          11.2273
        UZF RECHARGE     =       73223.9531          UZF RECHARGE     =           0.0000
               GW ET     =           0.0000                 GW ET     =           0.0000
     SURFACE LEAKAGE     =           0.0000       SURFACE LEAKAGE     =           0.0000
           AG WELLS      =           0.0000             AG WELLS      =           0.0000

                TOTAL IN =   107112448.0000                  TOTAL IN =          12.9805

          OUT:                                     OUT:
          ----                                     ----
             STORAGE     =    18311084.0000               STORAGE     =           1.4436
       CONSTANT HEAD     =           0.0000         CONSTANT HEAD     =           0.0000
     HEAD DEP BOUNDS     =     2450106.0000       HEAD DEP BOUNDS     =           0.2895
      STREAM LEAKAGE     =    86278384.0000        STREAM LEAKAGE     =          11.2473
        UZF RECHARGE     =           0.0000          UZF RECHARGE     =           0.0000
               GW ET     =           0.0000                 GW ET     =           0.0000
     SURFACE LEAKAGE     =           0.0000       SURFACE LEAKAGE     =           0.0000
           AG WELLS      =       76629.8672             AG WELLS      =           0.0000

               TOTAL OUT =   107116208.0000                 TOTAL OUT =          12.9804

                IN - OUT =       -3760.0000                  IN - OUT =       3.4332E-05

     PERCENT DISCREPANCY =          -0.00         PERCENT DISCREPANCY =           0.00






         TIME SUMMARY AT END OF TIME STEP    6 IN STRESS PERIOD    5
                    SECONDS     MINUTES      HOURS       DAYS        YEARS
                    -----------------------------------------------------------
   TIME STEP LENGTH  87667.      1461.1      24.352      1.0147     2.77799E-03
 STRESS PERIOD TIME 5.26000E+05  8766.7      146.11      6.0880     1.66679E-02
         TOTAL TIME 8.50239E+06 1.41707E+05  2361.8      98.407     0.26942    
1
 
 SOLVING FOR HEAD 
                                                   Max.-Head-Change                         Max.-Flux-Residual
  Residual-Control   Outer-Iter.   Inner-Iter.     Column Row Layer    Maximum-Head-Change  Column Row Layer    Maximum-Flux-Residual          L2-NORM 
          0                 1           2             2   13     1      -0.3270588938E-02       2   13    1        -0.1836416479E+00      0.4115467510E+00
          0                 2           2             2   13     1       0.3058913765E-03       2   13    1         0.1765540164E-01      0.4048563540E-01
          0                 3           2             4    7     1      -0.1154100003E-01       4    8    1        -0.6198622656E+00      0.1525273568E+01
          0                 4           2             4    7     1       0.1201652576E-01       4    8    1         0.6633960943E+00      0.1624973145E+01
          0                 5           2             4    7     1      -0.4782639837E-03       4    6    1        -0.2715200574E-01      0.6648334419E-01
          0                 6           1             4    7     1       0.5901016823E-05       4    7    1         0.3442167822E-03      0.8421195765E-03

    ------------------------------------------------
       NWT REQUIRED            6 OUTER ITERATIONS 
       AND A TOTAL OF         11 INNER ITERATIONS.
    ------------------------------------------------

 OUTPUT CONTROL FOR STRESS PERIOD    5   TIME STEP    7
    PRINT BUDGET
    SAVE BUDGET
 UBDSV1 SAVING "         STORAGE" ON UNIT 102 AT TIME STEP  7, STRESS PERIOD   5
 UBDSV2 SAVING "   CONSTANT HEAD" ON UNIT 102 AT TIME STEP  7, STRESS PERIOD   5
 UBDSV1 SAVING "FLOW RIGHT FACE " ON UNIT 102 AT TIME STEP  7, STRESS PERIOD   5
 UBDSV1 SAVING "FLOW FRONT FACE " ON UNIT 102 AT TIME STEP  7, STRESS PERIOD   5

  HEAD DEP BOUNDS   PERIOD    5   STEP     7
 BOUNDARY      1   LAYER   1   ROW    13   COL     1   RATE   -0.289369    
 BOUNDARY      2   LAYER   1   ROW    14   COL     9   RATE    0.287887    



 STREAM LISTING     PERIOD      5   STEP        7

 LAYER ROW COL. STREAM  RCH.  FLOW INTO     FLOW TO   FLOW OUT OF   OVRLND.     DIRECT     STREAM       STREAM     STREAM     STREAM   STREAMBED  STREAMBED
                SEG.NO.  NO.  STRM. RCH.    AQUIFER    STRM. RCH.    RUNOFF     PRECIP       ET          HEAD       DEPTH      WIDTH   CONDCTNC.   GRADIENT

   1    1    1     1     1    1.0500E+01  1.5271E-01   1.0347E+01  0.000E+00  0.000E+00  0.000E+00  1.09396E+03  9.109E-01  8.677E+00  3.905E-02  1.304E+00
   1    2    2     1     2    1.0347E+01  2.3505E-01   1.0112E+01  0.000E+00  0.000E+00  0.000E+00  1.08896E+03  9.059E-01  8.597E+00  6.018E-02  1.302E+00
   1    3    3     1     3    1.0112E+01  1.9904E-01   9.9132E+00  0.000E+00  0.000E+00  0.000E+00  1.08332E+03  9.003E-01  8.505E+00  5.103E-02  1.300E+00
   1    3    4     1     4    9.9132E+00  1.8195E-01   9.7313E+00  0.000E+00  0.000E+00  0.000E+00  1.07830E+03  8.947E-01  8.417E+00  4.672E-02  1.298E+00
   1    4    5     2     1    7.7313E+00  2.8007E-01   7.4512E+00  0.000E+00  0.000E+00  0.000E+00  1.07252E+03  5.907E-01  1.200E+01  7.800E-02  1.197E+00
   1    5    6     2     2    7.4512E+00  2.1474E-01   7.2365E+00  0.000E+00  0.000E+00  0.000E+00  1.06709E+03  5.790E-01  1.200E+01  6.000E-02  1.193E+00
   1    6    6     2     3    7.2365E+00  2.1413E-01   7.0224E+00  0.000E+00  0.000E+00  0.000E+00  1.06236E+03  5.688E-01  1.200E+01  6.000E-02  1.190E+00
   1    7    6     2     4    7.0224E+00  2.1351E-01   6.8088E+00  0.000E+00  0.000E+00  0.000E+00  1.05763E+03  5.585E-01  1.200E+01  6.000E-02  1.186E+00
   1    8    6     2     5    6.8088E+00  2.1289E-01   6.5960E+00  0.000E+00  0.000E+00  0.000E+00  1.05291E+03  5.481E-01  1.200E+01  6.000E-02  1.183E+00
   1    3    5     3     1    2.0000E+00  2.8252E-01   1.7175E+00  0.000E+00  0.000E+00  0.000E+00  1.07555E+03  1.909E+00  9.636E+00  7.227E-02  1.955E+00
   1    3    6     3     2    1.7175E+00  2.4905E-01   1.4684E+00  0.000E+00  0.000E+00  0.000E+00  1.07264E+03  1.727E+00  8.909E+00  6.682E-02  1.864E+00
   1    3    7     3     3    1.4684E+00  1.9718E-01   1.2712E+00  0.000E+00  0.000E+00  0.000E+00  1.06987E+03  1.555E+00  8.218E+00  5.547E-02  1.777E+00
   1    4    8     3     4    1.2712E+00  2.2567E-01   1.0456E+00  0.000E+00  0.000E+00  0.000E+00  1.06682E+03  1.364E+00  7.455E+00  6.709E-02  1.682E+00
   1    5    8     3     5    1.0456E+00  1.5790E-01   8.8768E-01  0.000E+00  0.000E+00  0.000E+00  1.06362E+03  1.164E+00  6.655E+00  4.991E-02  1.582E+00
   1    6    8     3     6    8.8768E-01  5.5980E-02   8.3170E-01  0.000E+00  0.000E+00  0.000E+00  1.06158E+03  1.036E+00  6.145E+00  1.844E-02  1.518E+00
   1    5   10     4     1    1.0000E+01  9.0919E-02   9.9091E+00  0.000E+00  0.000E+00  0.000E+00  1.07836E+03  6.368E-01  1.000E+01  2.500E-02  1.212E+00
   1    5    9     4     2    9.9091E+00  1.8158E-01   9.7275E+00  0.000E+00  0.000E+00  0.000E+00  1.07154E+03  6.315E-01  1.000E+01  5.000E-02  1.211E+00
   1    6    8     4     3    9.7275E+00  1.2689E-01   9.6006E+00  0.000E+00  0.000E+00  0.000E+00  1.06381E+03  6.256E-01  1.000E+01  3.500E-02  1.209E+00
   1    6    8     5     1    1.0432E+01  2.2686E-01   1.0205E+01  0.000E+00  0.000E+00  0.000E+00  1.05868E+03  6.790E-01  1.542E+01  6.166E-02  1.226E+00
   1    7    7     5     2    1.0205E+01  2.7894E-01   9.9265E+00  0.000E+00  0.000E+00  0.000E+00  1.05417E+03  6.732E-01  1.519E+01  7.594E-02  1.224E+00
   1    8    7     5     3    9.9265E+00  1.9221E-01   9.7343E+00  0.000E+00  0.000E+00  0.000E+00  1.04992E+03  6.676E-01  1.497E+01  5.241E-02  1.223E+00
   1    8    6     5     4    9.7343E+00  1.3577E-01   9.5985E+00  0.000E+00  0.000E+00  0.000E+00  1.04691E+03  6.637E-01  1.482E+01  3.706E-02  1.221E+00
   1    9    6     6     1    1.2474E+01  2.2801E-01   1.2246E+01  0.000E+00  0.000E+00  0.000E+00  1.04353E+03  8.002E-01  1.200E+01  6.000E-02  1.267E+00
   1   10    7     6     2    1.2246E+01  2.2748E-01   1.2019E+01  0.000E+00  0.000E+00  0.000E+00  1.03897E+03  7.913E-01  1.200E+01  6.000E-02  1.264E+00
   1   11    7     6     3    1.2019E+01  2.2694E-01   1.1792E+01  0.000E+00  0.000E+00  0.000E+00  1.03442E+03  7.824E-01  1.200E+01  6.000E-02  1.261E+00
   1   12    7     6     4    1.1792E+01  2.2640E-01   1.1566E+01  0.000E+00  0.000E+00  0.000E+00  1.02986E+03  7.734E-01  1.200E+01  6.000E-02  1.258E+00
   1   13    7     6     5    1.1566E+01 -4.2171E-02   1.1608E+01  0.000E+00  0.000E+00  0.000E+00  1.02668E+03  7.697E-01  1.200E+01  2.400E-01 -5.857E-02
   1   14    9     7     1    1.5000E+02  1.3671E+00   1.4863E+02  0.000E+00  0.000E+00  0.000E+00  1.03987E+03  2.288E+00  5.529E+01  5.593E-01  8.148E-01
   1   13    8     7     2    1.4863E+02  1.9168E+00   1.4672E+02  0.000E+00  0.000E+00  0.000E+00  1.03478E+03  2.279E+00  5.526E+01  6.148E-01  1.039E+00
   1   13    7     7     3    1.4672E+02  1.5827E+00   1.4513E+02  0.000E+00  0.000E+00  0.000E+00  1.02969E+03  2.270E+00  5.521E+01  5.584E-01  9.448E-01
   1   13    6     8     1    1.5674E+02  9.4596E-01   1.5580E+02  0.000E+00  0.000E+00  0.000E+00  1.02474E+03  2.860E+00  4.148E+01  4.227E-01  7.460E-01
   1   13    5     8     2    1.5580E+02  2.0121E-01   1.5559E+02  0.000E+00  0.000E+00  0.000E+00  1.01848E+03  2.856E+00  4.142E+01  4.221E-01  1.589E-01
   1   13    4     8     3    1.5559E+02 -2.4868E+00   1.5808E+02  0.000E+00  0.000E+00  0.000E+00  1.01224E+03  2.864E+00  4.153E+01  4.232E+00 -1.959E-01
   1   13    3     8     4    1.5808E+02 -3.7630E+00   1.6184E+02  0.000E+00  0.000E+00  0.000E+00  1.00601E+03  2.886E+00  4.184E+01  4.264E+00 -2.942E-01
   1   13    2     8     5    1.6184E+02 -2.7840E+00   1.6463E+02  0.000E+00  0.000E+00  0.000E+00  9.99783E+02  2.908E+00  4.216E+01  4.296E+00 -2.160E-01
   1   13    1     8     6    1.6463E+02 -2.1155E+00   1.6674E+02  0.000E+00  0.000E+00  0.000E+00  9.94799E+02  2.924E+00  4.240E+01  2.592E+00 -2.720E-01
   1    8    6     9     1    3.7200E+00  0.0000E+00   3.7200E+00  0.000E+00  0.000E+00  0.000E+00  1.08000E+03  1.252E+00  4.000E+00  0.000E+00  1.417E+00
   1    8    5     9     2    3.7200E+00  0.0000E+00   3.7200E+00  0.000E+00  0.000E+00  0.000E+00  1.07950E+03  1.252E+00  4.000E+00  0.000E+00  1.417E+00



 UBDSV3 SAVING "           GW ET" ON UNIT  61 AT TIME STEP  7, STRESS PERIOD   5
 UBDSV3 SAVING "    UZF RECHARGE" ON UNIT  61 AT TIME STEP  7, STRESS PERIOD   5
 UBDSV3 SAVING " SURFACE LEAKAGE" ON UNIT  61 AT TIME STEP  7, STRESS PERIOD   5
 UBDSV3 SAVING "       HORT+DUNN" ON UNIT  61 AT TIME STEP  7, STRESS PERIOD   5
 UBDSV3 SAVING "  STORAGE CHANGE" ON UNIT  61 AT TIME STEP  7, STRESS PERIOD   5


UNSATURATED ZONE PACKAGE VOLUMETRIC BUDGET FOR  TIME STEP     7 STRESS PERIOD    5
  ------------------------------------------------------------------------------



     CUMULATIVE VOLUMES      L**3       RATES FOR THIS TIME STEP      L**3/T
     ------------------                 ------------------------

           IN:                                      IN:
           ---                                      ---
        INFILTRATION =     9565594.2415          INFILTRATION =           4.5676

          OUT:                                     OUT:
          ----                                     ----
              UZF ET =     9408437.3584                UZF ET =           4.5675
        UZF RECHARGE =       73224.0000          UZF RECHARGE =       0.0000E+00

            IN - OUT =       83932.8831              IN - OUT =       6.9797E-05

          STORAGE:                                 STORAGE:
          --------                                 --------
      STORAGE CHANGE =       83932.2098        STORAGE CHANGE =       7.0011E-05

 PERCENT DISCREPANCY IS DIFFERENCE BETWEEN IN-OUT MINUS CHANGE IN STORAGE
 DIVIDED BY THE AVERAGE OF IN AND OUT TIMES 100

 PERCENT DISCREPANCY =           0.00     PERCENT DISCREPANCY =           0.00






 

        AG WELLS          PERIOD    5   STEP   7
 AG WELL      1   LAYER   1   ROW     6   COL     4   RATE     0.00000    
 AG WELL      2   LAYER   1   ROW     6   COL     5   RATE     0.00000    
 AG WELL      3   LAYER   1   ROW     7   COL     4   RATE     0.00000    
 AG WELL      4   LAYER   1   ROW     7   COL     5   RATE     0.00000    
 AG WELL      5   LAYER   1   ROW     8   COL     4   RATE     0.00000    
 AG WELL      6   LAYER   1   ROW     8   COL     5   RATE     0.00000    
 
 

   DIVERSION SEGMENTS     PERIOD    5   STEP   7
 SEGMENT      9   RATE     3.72000    
 
 

        SW IRRIGATION     PERIOD    5   STEP   7
 SEGMENT      9   ROW     6   COL     4   RATE    0.620012    
 SEGMENT      9   ROW     6   COL     5   RATE    0.620012    
 SEGMENT      9   ROW     7   COL     4   RATE    0.620012    
 SEGMENT      9   ROW     7   COL     5   RATE    0.620012    
 SEGMENT      9   ROW     8   COL     4   RATE    0.620012    
 SEGMENT      9   ROW     8   COL     5   RATE    0.620012    
 
 

        GW IRRIGATION     PERIOD    5   STEP   7
 AG WELL      1   ROW     6   COL     4   RATE     0.00000    
 AG WELL      2   ROW     6   COL     5   RATE     0.00000    
 AG WELL      3   ROW     7   COL     4   RATE     0.00000    
 AG WELL      4   ROW     7   COL     5   RATE     0.00000    
 AG WELL      5   ROW     8   COL     4   RATE     0.00000    
 AG WELL      6   ROW     8   COL     5   RATE     0.00000    
 
1
  VOLUMETRIC BUDGET FOR AGRICULTURAL FIELDS AT  END OF TIME STEP    7, STRESS PERIOD   5
  ------------------------------------------------------------------------------

     CUMULATIVE VOLUMES      L**3       RATES FOR THIS TIME STEP      L**3/T
     ------------------                 ------------------------

           IN:                                      IN:
           ---                                      ---
           AG WELLS      =       76629.8672             AG WELLS      =           0.0000
      DIVERSION SEGMENTS =     2208839.0000        DIVERSION SEGMENTS =           3.7200
           GW IRRIGATION =           0.0000             GW IRRIGATION =           0.0000
           SW IRRIGATION =           0.0000             SW IRRIGATION =           0.0000
        SYSTEM LOSSES GW =           0.0000          SYSTEM LOSSES GW =           0.0000
        SYSTEM LOSSES SW =           0.0000          SYSTEM LOSSES SW =           0.0000

                TOTAL IN =     2285468.7500                  TOTAL IN =           3.7200

          OUT:                                     OUT:
          ----                                     ----
           AG WELLS      =           0.0000             AG WELLS      =           0.0000
      DIVERSION SEGMENTS =           0.0000        DIVERSION SEGMENTS =           0.0000
           GW IRRIGATION =       76629.8672             GW IRRIGATION =           0.0000
           SW IRRIGATION =     2208883.0000             SW IRRIGATION =           3.7201
        SYSTEM LOSSES GW =           0.0000          SYSTEM LOSSES GW =           0.0000
        SYSTEM LOSSES SW =           0.0000          SYSTEM LOSSES SW =           0.0000

               TOTAL OUT =     2285512.7500                 TOTAL OUT =           3.7201

                IN - OUT =         -44.0000                  IN - OUT =      -7.4387E-05

     PERCENT DISCREPANCY =          -0.00         PERCENT DISCREPANCY =          -0.00



1
  VOLUMETRIC BUDGET FOR ENTIRE MODEL AT END OF TIME STEP    7, STRESS PERIOD   5
  ------------------------------------------------------------------------------

     CUMULATIVE VOLUMES      L**3       RATES FOR THIS TIME STEP      L**3/T
     ------------------                 ------------------------

           IN:                                      IN:
           ---                                      ---
             STORAGE     =     5351775.0000               STORAGE     =           1.3978
       CONSTANT HEAD     =           0.0000         CONSTANT HEAD     =           0.0000
     HEAD DEP BOUNDS     =     2472447.7500       HEAD DEP BOUNDS     =           0.2879
      STREAM LEAKAGE     =   100347120.0000        STREAM LEAKAGE     =          11.2282
        UZF RECHARGE     =       73223.9531          UZF RECHARGE     =           0.0000
               GW ET     =           0.0000                 GW ET     =           0.0000
     SURFACE LEAKAGE     =           0.0000       SURFACE LEAKAGE     =           0.0000
           AG WELLS      =           0.0000             AG WELLS      =           0.0000

                TOTAL IN =   108244568.0000                  TOTAL IN =          12.9139

          OUT:                                     OUT:
          ----                                     ----
             STORAGE     =    18436720.0000               STORAGE     =           1.4331
       CONSTANT HEAD     =           0.0000         CONSTANT HEAD     =           0.0000
     HEAD DEP BOUNDS     =     2475474.0000       HEAD DEP BOUNDS     =           0.2894
      STREAM LEAKAGE     =    87259496.0000        STREAM LEAKAGE     =          11.1914
        UZF RECHARGE     =           0.0000          UZF RECHARGE     =           0.0000
               GW ET     =           0.0000                 GW ET     =           0.0000
     SURFACE LEAKAGE     =           0.0000       SURFACE LEAKAGE     =           0.0000
           AG WELLS      =       76629.8672             AG WELLS      =           0.0000

               TOTAL OUT =   108248320.0000                 TOTAL OUT =          12.9139

                IN - OUT =       -3752.0000                  IN - OUT =       3.4332E-05

     PERCENT DISCREPANCY =          -0.00         PERCENT DISCREPANCY =           0.00






         TIME SUMMARY AT END OF TIME STEP    7 IN STRESS PERIOD    5
                    SECONDS     MINUTES      HOURS       DAYS        YEARS
                    -----------------------------------------------------------
   TIME STEP LENGTH  87667.      1461.1      24.352      1.0147     2.77799E-03
 STRESS PERIOD TIME 6.13667E+05  10228.      170.46      7.1026     1.94459E-02
         TOTAL TIME 8.59006E+06 1.43168E+05  2386.1      99.422     0.27220    
1
 
 SOLVING FOR HEAD 
                                                   Max.-Head-Change                         Max.-Flux-Residual
  Residual-Control   Outer-Iter.   Inner-Iter.     Column Row Layer    Maximum-Head-Change  Column Row Layer    Maximum-Flux-Residual          L2-NORM 
          0                 1           2             2   13     1      -0.2935293492E-02       2   13    1        -0.1647868676E+00      0.3847064488E+00
          0                 2           2             2   13     1       0.2747901387E-03       2   13    1         0.1585758110E-01      0.3790457424E-01
          0                 3           2             4    7     1      -0.1154088752E-01       4    8    1        -0.6198617430E+00      0.1525274707E+01
          0                 4           2             4    7     1       0.1201643525E-01       4    8    1         0.6633959383E+00      0.1624827559E+01
          0                 5           2             4    7     1      -0.4782654647E-03       4    6    1        -0.2715892327E-01      0.6648618809E-01
          0                 6           1             4    7     1       0.5901594825E-05       4    6    1         0.3444425765E-03      0.8434410077E-03

    ------------------------------------------------
       NWT REQUIRED            6 OUTER ITERATIONS 
       AND A TOTAL OF         11 INNER ITERATIONS.
    ------------------------------------------------

 OUTPUT CONTROL FOR STRESS PERIOD    5   TIME STEP    8
    PRINT BUDGET
    SAVE BUDGET
 UBDSV1 SAVING "         STORAGE" ON UNIT 102 AT TIME STEP  8, STRESS PERIOD   5
 UBDSV2 SAVING "   CONSTANT HEAD" ON UNIT 102 AT TIME STEP  8, STRESS PERIOD   5
 UBDSV1 SAVING "FLOW RIGHT FACE " ON UNIT 102 AT TIME STEP  8, STRESS PERIOD   5
 UBDSV1 SAVING "FLOW FRONT FACE " ON UNIT 102 AT TIME STEP  8, STRESS PERIOD   5

  HEAD DEP BOUNDS   PERIOD    5   STEP     8
 BOUNDARY      1   LAYER   1   ROW    13   COL     1   RATE   -0.289271    
 BOUNDARY      2   LAYER   1   ROW    14   COL     9   RATE    0.287888    



 STREAM LISTING     PERIOD      5   STEP        8

 LAYER ROW COL. STREAM  RCH.  FLOW INTO     FLOW TO   FLOW OUT OF   OVRLND.     DIRECT     STREAM       STREAM     STREAM     STREAM   STREAMBED  STREAMBED
                SEG.NO.  NO.  STRM. RCH.    AQUIFER    STRM. RCH.    RUNOFF     PRECIP       ET          HEAD       DEPTH      WIDTH   CONDCTNC.   GRADIENT

   1    1    1     1     1    1.0500E+01  1.5271E-01   1.0347E+01  0.000E+00  0.000E+00  0.000E+00  1.09396E+03  9.109E-01  8.677E+00  3.905E-02  1.304E+00
   1    2    2     1     2    1.0347E+01  2.3505E-01   1.0112E+01  0.000E+00  0.000E+00  0.000E+00  1.08896E+03  9.059E-01  8.597E+00  6.018E-02  1.302E+00
   1    3    3     1     3    1.0112E+01  1.9904E-01   9.9132E+00  0.000E+00  0.000E+00  0.000E+00  1.08332E+03  9.003E-01  8.505E+00  5.103E-02  1.300E+00
   1    3    4     1     4    9.9132E+00  1.8195E-01   9.7313E+00  0.000E+00  0.000E+00  0.000E+00  1.07830E+03  8.947E-01  8.417E+00  4.672E-02  1.298E+00
   1    4    5     2     1    7.7313E+00  2.8007E-01   7.4512E+00  0.000E+00  0.000E+00  0.000E+00  1.07252E+03  5.907E-01  1.200E+01  7.800E-02  1.197E+00
   1    5    6     2     2    7.4512E+00  2.1474E-01   7.2365E+00  0.000E+00  0.000E+00  0.000E+00  1.06709E+03  5.790E-01  1.200E+01  6.000E-02  1.193E+00
   1    6    6     2     3    7.2365E+00  2.1413E-01   7.0224E+00  0.000E+00  0.000E+00  0.000E+00  1.06236E+03  5.688E-01  1.200E+01  6.000E-02  1.190E+00
   1    7    6     2     4    7.0224E+00  2.1351E-01   6.8088E+00  0.000E+00  0.000E+00  0.000E+00  1.05763E+03  5.585E-01  1.200E+01  6.000E-02  1.186E+00
   1    8    6     2     5    6.8088E+00  2.1289E-01   6.5960E+00  0.000E+00  0.000E+00  0.000E+00  1.05291E+03  5.481E-01  1.200E+01  6.000E-02  1.183E+00
   1    3    5     3     1    2.0000E+00  2.8252E-01   1.7175E+00  0.000E+00  0.000E+00  0.000E+00  1.07555E+03  1.909E+00  9.636E+00  7.227E-02  1.955E+00
   1    3    6     3     2    1.7175E+00  2.4905E-01   1.4684E+00  0.000E+00  0.000E+00  0.000E+00  1.07264E+03  1.727E+00  8.909E+00  6.682E-02  1.864E+00
   1    3    7     3     3    1.4684E+00  1.9718E-01   1.2712E+00  0.000E+00  0.000E+00  0.000E+00  1.06987E+03  1.555E+00  8.218E+00  5.547E-02  1.777E+00
   1    4    8     3     4    1.2712E+00  2.2567E-01   1.0456E+00  0.000E+00  0.000E+00  0.000E+00  1.06682E+03  1.364E+00  7.455E+00  6.709E-02  1.682E+00
   1    5    8     3     5    1.0456E+00  1.5790E-01   8.8768E-01  0.000E+00  0.000E+00  0.000E+00  1.06362E+03  1.164E+00  6.655E+00  4.991E-02  1.582E+00
   1    6    8     3     6    8.8768E-01  5.5980E-02   8.3170E-01  0.000E+00  0.000E+00  0.000E+00  1.06158E+03  1.036E+00  6.145E+00  1.844E-02  1.518E+00
   1    5   10     4     1    1.0000E+01  9.0919E-02   9.9091E+00  0.000E+00  0.000E+00  0.000E+00  1.07836E+03  6.368E-01  1.000E+01  2.500E-02  1.212E+00
   1    5    9     4     2    9.9091E+00  1.8158E-01   9.7275E+00  0.000E+00  0.000E+00  0.000E+00  1.07154E+03  6.315E-01  1.000E+01  5.000E-02  1.211E+00
   1    6    8     4     3    9.7275E+00  1.2689E-01   9.6006E+00  0.000E+00  0.000E+00  0.000E+00  1.06381E+03  6.256E-01  1.000E+01  3.500E-02  1.209E+00
   1    6    8     5     1    1.0432E+01  2.2686E-01   1.0205E+01  0.000E+00  0.000E+00  0.000E+00  1.05868E+03  6.790E-01  1.542E+01  6.166E-02  1.226E+00
   1    7    7     5     2    1.0205E+01  2.7894E-01   9.9265E+00  0.000E+00  0.000E+00  0.000E+00  1.05417E+03  6.732E-01  1.519E+01  7.594E-02  1.224E+00
   1    8    7     5     3    9.9265E+00  1.9221E-01   9.7343E+00  0.000E+00  0.000E+00  0.000E+00  1.04992E+03  6.676E-01  1.497E+01  5.241E-02  1.223E+00
   1    8    6     5     4    9.7343E+00  1.3577E-01   9.5985E+00  0.000E+00  0.000E+00  0.000E+00  1.04691E+03  6.637E-01  1.482E+01  3.706E-02  1.221E+00
   1    9    6     6     1    1.2474E+01  2.2801E-01   1.2246E+01  0.000E+00  0.000E+00  0.000E+00  1.04353E+03  8.002E-01  1.200E+01  6.000E-02  1.267E+00
   1   10    7     6     2    1.2246E+01  2.2748E-01   1.2019E+01  0.000E+00  0.000E+00  0.000E+00  1.03897E+03  7.913E-01  1.200E+01  6.000E-02  1.264E+00
   1   11    7     6     3    1.2019E+01  2.2694E-01   1.1792E+01  0.000E+00  0.000E+00  0.000E+00  1.03442E+03  7.824E-01  1.200E+01  6.000E-02  1.261E+00
   1   12    7     6     4    1.1792E+01  2.2640E-01   1.1566E+01  0.000E+00  0.000E+00  0.000E+00  1.02986E+03  7.734E-01  1.200E+01  6.000E-02  1.258E+00
   1   13    7     6     5    1.1566E+01 -4.2066E-02   1.1608E+01  0.000E+00  0.000E+00  0.000E+00  1.02668E+03  7.697E-01  1.200E+01  2.400E-01 -5.843E-02
   1   14    9     7     1    1.5000E+02  1.3671E+00   1.4863E+02  0.000E+00  0.000E+00  0.000E+00  1.03987E+03  2.288E+00  5.529E+01  5.593E-01  8.148E-01
   1   13    8     7     2    1.4863E+02  1.9168E+00   1.4672E+02  0.000E+00  0.000E+00  0.000E+00  1.03478E+03  2.279E+00  5.526E+01  6.148E-01  1.039E+00
   1   13    7     7     3    1.4672E+02  1.5830E+00   1.4513E+02  0.000E+00  0.000E+00  0.000E+00  1.02969E+03  2.270E+00  5.521E+01  5.584E-01  9.449E-01
   1   13    6     8     1    1.5674E+02  9.4631E-01   1.5579E+02  0.000E+00  0.000E+00  0.000E+00  1.02474E+03  2.860E+00  4.148E+01  4.227E-01  7.463E-01
   1   13    5     8     2    1.5579E+02  2.0153E-01   1.5559E+02  0.000E+00  0.000E+00  0.000E+00  1.01848E+03  2.856E+00  4.142E+01  4.221E-01  1.592E-01
   1   13    4     8     3    1.5559E+02 -2.4717E+00   1.5806E+02  0.000E+00  0.000E+00  0.000E+00  1.01224E+03  2.864E+00  4.153E+01  4.232E+00 -1.947E-01
   1   13    3     8     4    1.5806E+02 -3.7486E+00   1.6181E+02  0.000E+00  0.000E+00  0.000E+00  1.00601E+03  2.885E+00  4.184E+01  4.264E+00 -2.931E-01
   1   13    2     8     5    1.6181E+02 -2.7680E+00   1.6458E+02  0.000E+00  0.000E+00  0.000E+00  9.99782E+02  2.907E+00  4.216E+01  4.296E+00 -2.148E-01
   1   13    1     8     6    1.6458E+02 -2.1094E+00   1.6669E+02  0.000E+00  0.000E+00  0.000E+00  9.94799E+02  2.924E+00  4.239E+01  2.592E+00 -2.713E-01
   1    8    6     9     1    3.7200E+00  0.0000E+00   3.7200E+00  0.000E+00  0.000E+00  0.000E+00  1.08000E+03  1.252E+00  4.000E+00  0.000E+00  1.417E+00
   1    8    5     9     2    3.7200E+00  0.0000E+00   3.7200E+00  0.000E+00  0.000E+00  0.000E+00  1.07950E+03  1.252E+00  4.000E+00  0.000E+00  1.417E+00



 UBDSV3 SAVING "           GW ET" ON UNIT  61 AT TIME STEP  8, STRESS PERIOD   5
 UBDSV3 SAVING "    UZF RECHARGE" ON UNIT  61 AT TIME STEP  8, STRESS PERIOD   5
 UBDSV3 SAVING " SURFACE LEAKAGE" ON UNIT  61 AT TIME STEP  8, STRESS PERIOD   5
 UBDSV3 SAVING "       HORT+DUNN" ON UNIT  61 AT TIME STEP  8, STRESS PERIOD   5
 UBDSV3 SAVING "  STORAGE CHANGE" ON UNIT  61 AT TIME STEP  8, STRESS PERIOD   5


UNSATURATED ZONE PACKAGE VOLUMETRIC BUDGET FOR  TIME STEP     8 STRESS PERIOD    5
  ------------------------------------------------------------------------------



     CUMULATIVE VOLUMES      L**3       RATES FOR THIS TIME STEP      L**3/T
     ------------------                 ------------------------

           IN:                                      IN:
           ---                                      ---
        INFILTRATION =     9966017.7686          INFILTRATION =           4.5676

          OUT:                                     OUT:
          ----                                     ----
              UZF ET =     9808854.8386                UZF ET =           4.5675
        UZF RECHARGE =       73224.0000          UZF RECHARGE =       0.0000E+00

            IN - OUT =       83938.9300              IN - OUT =       6.9022E-05

          STORAGE:                                 STORAGE:
          --------                                 --------
      STORAGE CHANGE =       83938.2380        STORAGE CHANGE =       6.8763E-05

 PERCENT DISCREPANCY IS DIFFERENCE BETWEEN IN-OUT MINUS CHANGE IN STORAGE
 DIVIDED BY THE AVERAGE OF IN AND OUT TIMES 100

 PERCENT DISCREPANCY =           0.00     PERCENT DISCREPANCY =           0.00






 

        AG WELLS          PERIOD    5   STEP   8
 AG WELL      1   LAYER   1   ROW     6   COL     4   RATE     0.00000    
 AG WELL      2   LAYER   1   ROW     6   COL     5   RATE     0.00000    
 AG WELL      3   LAYER   1   ROW     7   COL     4   RATE     0.00000    
 AG WELL      4   LAYER   1   ROW     7   COL     5   RATE     0.00000    
 AG WELL      5   LAYER   1   ROW     8   COL     4   RATE     0.00000    
 AG WELL      6   LAYER   1   ROW     8   COL     5   RATE     0.00000    
 
 

   DIVERSION SEGMENTS     PERIOD    5   STEP   8
 SEGMENT      9   RATE     3.71999    
 
 

        SW IRRIGATION     PERIOD    5   STEP   8
 SEGMENT      9   ROW     6   COL     4   RATE    0.620011    
 SEGMENT      9   ROW     6   COL     5   RATE    0.620011    
 SEGMENT      9   ROW     7   COL     4   RATE    0.620011    
 SEGMENT      9   ROW     7   COL     5   RATE    0.620011    
 SEGMENT      9   ROW     8   COL     4   RATE    0.620011    
 SEGMENT      9   ROW     8   COL     5   RATE    0.620011    
 
 

        GW IRRIGATION     PERIOD    5   STEP   8
 AG WELL      1   ROW     6   COL     4   RATE     0.00000    
 AG WELL      2   ROW     6   COL     5   RATE     0.00000    
 AG WELL      3   ROW     7   COL     4   RATE     0.00000    
 AG WELL      4   ROW     7   COL     5   RATE     0.00000    
 AG WELL      5   ROW     8   COL     4   RATE     0.00000    
 AG WELL      6   ROW     8   COL     5   RATE     0.00000    
 
1
  VOLUMETRIC BUDGET FOR AGRICULTURAL FIELDS AT  END OF TIME STEP    8, STRESS PERIOD   5
  ------------------------------------------------------------------------------

     CUMULATIVE VOLUMES      L**3       RATES FOR THIS TIME STEP      L**3/T
     ------------------                 ------------------------

           IN:                                      IN:
           ---                                      ---
           AG WELLS      =       76629.8672             AG WELLS      =           0.0000
      DIVERSION SEGMENTS =     2534958.5000        DIVERSION SEGMENTS =           3.7200
           GW IRRIGATION =           0.0000             GW IRRIGATION =           0.0000
           SW IRRIGATION =           0.0000             SW IRRIGATION =           0.0000
        SYSTEM LOSSES GW =           0.0000          SYSTEM LOSSES GW =           0.0000
        SYSTEM LOSSES SW =           0.0000          SYSTEM LOSSES SW =           0.0000

                TOTAL IN =     2611588.2500                  TOTAL IN =           3.7200

          OUT:                                     OUT:
          ----                                     ----
           AG WELLS      =           0.0000             AG WELLS      =           0.0000
      DIVERSION SEGMENTS =           0.0000        DIVERSION SEGMENTS =           0.0000
           GW IRRIGATION =       76629.8672             GW IRRIGATION =           0.0000
           SW IRRIGATION =     2535009.0000             SW IRRIGATION =           3.7201
        SYSTEM LOSSES GW =           0.0000          SYSTEM LOSSES GW =           0.0000
        SYSTEM LOSSES SW =           0.0000          SYSTEM LOSSES SW =           0.0000

               TOTAL OUT =     2611638.7500                 TOTAL OUT =           3.7201

                IN - OUT =         -50.5000                  IN - OUT =      -7.4148E-05

     PERCENT DISCREPANCY =          -0.00         PERCENT DISCREPANCY =          -0.00



1
  VOLUMETRIC BUDGET FOR ENTIRE MODEL AT END OF TIME STEP    8, STRESS PERIOD   5
  ------------------------------------------------------------------------------

     CUMULATIVE VOLUMES      L**3       RATES FOR THIS TIME STEP      L**3/T
     ------------------                 ------------------------

           IN:                                      IN:
           ---                                      ---
             STORAGE     =     5468973.5000               STORAGE     =           1.3369
       CONSTANT HEAD     =           0.0000         CONSTANT HEAD     =           0.0000
     HEAD DEP BOUNDS     =     2497686.0000       HEAD DEP BOUNDS     =           0.2879
      STREAM LEAKAGE     =   101331536.0000        STREAM LEAKAGE     =          11.2291
        UZF RECHARGE     =       73223.9531          UZF RECHARGE     =           0.0000
               GW ET     =           0.0000                 GW ET     =           0.0000
     SURFACE LEAKAGE     =           0.0000       SURFACE LEAKAGE     =           0.0000
           AG WELLS      =           0.0000             AG WELLS      =           0.0000

                TOTAL IN =   109371416.0000                  TOTAL IN =          12.8539

          OUT:                                     OUT:
          ----                                     ----
             STORAGE     =    18561636.0000               STORAGE     =           1.4249
       CONSTANT HEAD     =           0.0000         CONSTANT HEAD     =           0.0000
     HEAD DEP BOUNDS     =     2500833.5000       HEAD DEP BOUNDS     =           0.2893
      STREAM LEAKAGE     =    88236072.0000        STREAM LEAKAGE     =          11.1396
        UZF RECHARGE     =           0.0000          UZF RECHARGE     =           0.0000
               GW ET     =           0.0000                 GW ET     =           0.0000
     SURFACE LEAKAGE     =           0.0000       SURFACE LEAKAGE     =           0.0000
           AG WELLS      =       76629.8672             AG WELLS      =           0.0000

               TOTAL OUT =   109375176.0000                 TOTAL OUT =          12.8538

                IN - OUT =       -3760.0000                  IN - OUT =       3.5286E-05

     PERCENT DISCREPANCY =          -0.00         PERCENT DISCREPANCY =           0.00






         TIME SUMMARY AT END OF TIME STEP    8 IN STRESS PERIOD    5
                    SECONDS     MINUTES      HOURS       DAYS        YEARS
                    -----------------------------------------------------------
   TIME STEP LENGTH  87667.      1461.1      24.352      1.0147     2.77799E-03
 STRESS PERIOD TIME 7.01333E+05  11689.      194.81      8.1173     2.22239E-02
         TOTAL TIME 8.67773E+06 1.44629E+05  2410.5      100.44     0.27498    
1
 
 SOLVING FOR HEAD 
                                                   Max.-Head-Change                         Max.-Flux-Residual
  Residual-Control   Outer-Iter.   Inner-Iter.     Column Row Layer    Maximum-Head-Change  Column Row Layer    Maximum-Flux-Residual          L2-NORM 
          0                 1           2             2   13     1      -0.2624335009E-02       2   13    1        -0.1473019994E+00      0.3612331516E+00
          0                 2           2             2   13     1       0.2457543318E-03       2   13    1         0.1417918364E-01      0.3564278188E-01
          0                 3           2             4    7     1      -0.1154086522E-01       4    8    1        -0.6198612146E+00      0.1525276952E+01
          0                 4           2             4    7     1       0.1201643562E-01       4    8    1         0.6633957223E+00      0.1624836093E+01
          0                 5           2             4    7     1      -0.4782705237E-03       4    6    1        -0.2718118381E-01      0.6649527904E-01
          0                 6           1             4    7     1       0.5901657106E-05       4    6    1         0.3447249201E-03      0.8433369071E-03

    ------------------------------------------------
       NWT REQUIRED            6 OUTER ITERATIONS 
       AND A TOTAL OF         11 INNER ITERATIONS.
    ------------------------------------------------

 OUTPUT CONTROL FOR STRESS PERIOD    5   TIME STEP    9
    PRINT BUDGET
    SAVE BUDGET
 UBDSV1 SAVING "         STORAGE" ON UNIT 102 AT TIME STEP  9, STRESS PERIOD   5
 UBDSV2 SAVING "   CONSTANT HEAD" ON UNIT 102 AT TIME STEP  9, STRESS PERIOD   5
 UBDSV1 SAVING "FLOW RIGHT FACE " ON UNIT 102 AT TIME STEP  9, STRESS PERIOD   5
 UBDSV1 SAVING "FLOW FRONT FACE " ON UNIT 102 AT TIME STEP  9, STRESS PERIOD   5

  HEAD DEP BOUNDS   PERIOD    5   STEP     9
 BOUNDARY      1   LAYER   1   ROW    13   COL     1   RATE   -0.289176    
 BOUNDARY      2   LAYER   1   ROW    14   COL     9   RATE    0.287889    



 STREAM LISTING     PERIOD      5   STEP        9

 LAYER ROW COL. STREAM  RCH.  FLOW INTO     FLOW TO   FLOW OUT OF   OVRLND.     DIRECT     STREAM       STREAM     STREAM     STREAM   STREAMBED  STREAMBED
                SEG.NO.  NO.  STRM. RCH.    AQUIFER    STRM. RCH.    RUNOFF     PRECIP       ET          HEAD       DEPTH      WIDTH   CONDCTNC.   GRADIENT

   1    1    1     1     1    1.0500E+01  1.5271E-01   1.0347E+01  0.000E+00  0.000E+00  0.000E+00  1.09396E+03  9.109E-01  8.677E+00  3.905E-02  1.304E+00
   1    2    2     1     2    1.0347E+01  2.3505E-01   1.0112E+01  0.000E+00  0.000E+00  0.000E+00  1.08896E+03  9.059E-01  8.597E+00  6.018E-02  1.302E+00
   1    3    3     1     3    1.0112E+01  1.9904E-01   9.9132E+00  0.000E+00  0.000E+00  0.000E+00  1.08332E+03  9.003E-01  8.505E+00  5.103E-02  1.300E+00
   1    3    4     1     4    9.9132E+00  1.8195E-01   9.7313E+00  0.000E+00  0.000E+00  0.000E+00  1.07830E+03  8.947E-01  8.417E+00  4.672E-02  1.298E+00
   1    4    5     2     1    7.7313E+00  2.8007E-01   7.4512E+00  0.000E+00  0.000E+00  0.000E+00  1.07252E+03  5.907E-01  1.200E+01  7.800E-02  1.197E+00
   1    5    6     2     2    7.4512E+00  2.1474E-01   7.2365E+00  0.000E+00  0.000E+00  0.000E+00  1.06709E+03  5.790E-01  1.200E+01  6.000E-02  1.193E+00
   1    6    6     2     3    7.2365E+00  2.1413E-01   7.0224E+00  0.000E+00  0.000E+00  0.000E+00  1.06236E+03  5.688E-01  1.200E+01  6.000E-02  1.190E+00
   1    7    6     2     4    7.0224E+00  2.1351E-01   6.8088E+00  0.000E+00  0.000E+00  0.000E+00  1.05763E+03  5.585E-01  1.200E+01  6.000E-02  1.186E+00
   1    8    6     2     5    6.8088E+00  2.1289E-01   6.5960E+00  0.000E+00  0.000E+00  0.000E+00  1.05291E+03  5.481E-01  1.200E+01  6.000E-02  1.183E+00
   1    3    5     3     1    2.0000E+00  2.8252E-01   1.7175E+00  0.000E+00  0.000E+00  0.000E+00  1.07555E+03  1.909E+00  9.636E+00  7.227E-02  1.955E+00
   1    3    6     3     2    1.7175E+00  2.4905E-01   1.4684E+00  0.000E+00  0.000E+00  0.000E+00  1.07264E+03  1.727E+00  8.909E+00  6.682E-02  1.864E+00
   1    3    7     3     3    1.4684E+00  1.9718E-01   1.2712E+00  0.000E+00  0.000E+00  0.000E+00  1.06987E+03  1.555E+00  8.218E+00  5.547E-02  1.777E+00
   1    4    8     3     4    1.2712E+00  2.2567E-01   1.0456E+00  0.000E+00  0.000E+00  0.000E+00  1.06682E+03  1.364E+00  7.455E+00  6.709E-02  1.682E+00
   1    5    8     3     5    1.0456E+00  1.5790E-01   8.8768E-01  0.000E+00  0.000E+00  0.000E+00  1.06362E+03  1.164E+00  6.655E+00  4.991E-02  1.582E+00
   1    6    8     3     6    8.8768E-01  5.5980E-02   8.3170E-01  0.000E+00  0.000E+00  0.000E+00  1.06158E+03  1.036E+00  6.145E+00  1.844E-02  1.518E+00
   1    5   10     4     1    1.0000E+01  9.0919E-02   9.9091E+00  0.000E+00  0.000E+00  0.000E+00  1.07836E+03  6.368E-01  1.000E+01  2.500E-02  1.212E+00
   1    5    9     4     2    9.9091E+00  1.8158E-01   9.7275E+00  0.000E+00  0.000E+00  0.000E+00  1.07154E+03  6.315E-01  1.000E+01  5.000E-02  1.211E+00
   1    6    8     4     3    9.7275E+00  1.2689E-01   9.6006E+00  0.000E+00  0.000E+00  0.000E+00  1.06381E+03  6.256E-01  1.000E+01  3.500E-02  1.209E+00
   1    6    8     5     1    1.0432E+01  2.2686E-01   1.0205E+01  0.000E+00  0.000E+00  0.000E+00  1.05868E+03  6.790E-01  1.542E+01  6.166E-02  1.226E+00
   1    7    7     5     2    1.0205E+01  2.7894E-01   9.9265E+00  0.000E+00  0.000E+00  0.000E+00  1.05417E+03  6.732E-01  1.519E+01  7.594E-02  1.224E+00
   1    8    7     5     3    9.9265E+00  1.9221E-01   9.7343E+00  0.000E+00  0.000E+00  0.000E+00  1.04992E+03  6.676E-01  1.497E+01  5.241E-02  1.223E+00
   1    8    6     5     4    9.7343E+00  1.3577E-01   9.5985E+00  0.000E+00  0.000E+00  0.000E+00  1.04691E+03  6.637E-01  1.482E+01  3.706E-02  1.221E+00
   1    9    6     6     1    1.2474E+01  2.2801E-01   1.2246E+01  0.000E+00  0.000E+00  0.000E+00  1.04353E+03  8.002E-01  1.200E+01  6.000E-02  1.267E+00
   1   10    7     6     2    1.2246E+01  2.2748E-01   1.2019E+01  0.000E+00  0.000E+00  0.000E+00  1.03897E+03  7.913E-01  1.200E+01  6.000E-02  1.264E+00
   1   11    7     6     3    1.2019E+01  2.2694E-01   1.1792E+01  0.000E+00  0.000E+00  0.000E+00  1.03442E+03  7.824E-01  1.200E+01  6.000E-02  1.261E+00
   1   12    7     6     4    1.1792E+01  2.2640E-01   1.1566E+01  0.000E+00  0.000E+00  0.000E+00  1.02986E+03  7.734E-01  1.200E+01  6.000E-02  1.258E+00
   1   13    7     6     5    1.1566E+01 -4.1964E-02   1.1608E+01  0.000E+00  0.000E+00  0.000E+00  1.02668E+03  7.697E-01  1.200E+01  2.400E-01 -5.828E-02
   1   14    9     7     1    1.5000E+02  1.3671E+00   1.4863E+02  0.000E+00  0.000E+00  0.000E+00  1.03987E+03  2.288E+00  5.529E+01  5.593E-01  8.148E-01
   1   13    8     7     2    1.4863E+02  1.9168E+00   1.4672E+02  0.000E+00  0.000E+00  0.000E+00  1.03478E+03  2.279E+00  5.526E+01  6.148E-01  1.039E+00
   1   13    7     7     3    1.4672E+02  1.5832E+00   1.4513E+02  0.000E+00  0.000E+00  0.000E+00  1.02969E+03  2.270E+00  5.521E+01  5.584E-01  9.451E-01
   1   13    6     8     1    1.5674E+02  9.4665E-01   1.5579E+02  0.000E+00  0.000E+00  0.000E+00  1.02474E+03  2.860E+00  4.148E+01  4.227E-01  7.466E-01
   1   13    5     8     2    1.5579E+02  2.0185E-01   1.5559E+02  0.000E+00  0.000E+00  0.000E+00  1.01848E+03  2.856E+00  4.142E+01  4.221E-01  1.594E-01
   1   13    4     8     3    1.5559E+02 -2.4579E+00   1.5805E+02  0.000E+00  0.000E+00  0.000E+00  1.01224E+03  2.864E+00  4.153E+01  4.232E+00 -1.936E-01
   1   13    3     8     4    1.5805E+02 -3.7352E+00   1.6179E+02  0.000E+00  0.000E+00  0.000E+00  1.00601E+03  2.885E+00  4.184E+01  4.263E+00 -2.920E-01
   1   13    2     8     5    1.6179E+02 -2.7531E+00   1.6454E+02  0.000E+00  0.000E+00  0.000E+00  9.99782E+02  2.907E+00  4.215E+01  4.296E+00 -2.136E-01
   1   13    1     8     6    1.6454E+02 -2.1035E+00   1.6664E+02  0.000E+00  0.000E+00  0.000E+00  9.94798E+02  2.923E+00  4.239E+01  2.592E+00 -2.706E-01
   1    8    6     9     1    3.7200E+00  0.0000E+00   3.7200E+00  0.000E+00  0.000E+00  0.000E+00  1.08000E+03  1.252E+00  4.000E+00  0.000E+00  1.417E+00
   1    8    5     9     2    3.7200E+00  0.0000E+00   3.7200E+00  0.000E+00  0.000E+00  0.000E+00  1.07950E+03  1.252E+00  4.000E+00  0.000E+00  1.417E+00



 UBDSV3 SAVING "           GW ET" ON UNIT  61 AT TIME STEP  9, STRESS PERIOD   5
 UBDSV3 SAVING "    UZF RECHARGE" ON UNIT  61 AT TIME STEP  9, STRESS PERIOD   5
 UBDSV3 SAVING " SURFACE LEAKAGE" ON UNIT  61 AT TIME STEP  9, STRESS PERIOD   5
 UBDSV3 SAVING "       HORT+DUNN" ON UNIT  61 AT TIME STEP  9, STRESS PERIOD   5
 UBDSV3 SAVING "  STORAGE CHANGE" ON UNIT  61 AT TIME STEP  9, STRESS PERIOD   5


UNSATURATED ZONE PACKAGE VOLUMETRIC BUDGET FOR  TIME STEP     9 STRESS PERIOD    5
  ------------------------------------------------------------------------------



     CUMULATIVE VOLUMES      L**3       RATES FOR THIS TIME STEP      L**3/T
     ------------------                 ------------------------

           IN:                                      IN:
           ---                                      ---
        INFILTRATION =    10366441.2254          INFILTRATION =           4.5676

          OUT:                                     OUT:
          ----                                     ----
              UZF ET =    10209272.3423                UZF ET =           4.5675
        UZF RECHARGE =       73224.0000          UZF RECHARGE =       0.0000E+00

            IN - OUT =       83944.8831              IN - OUT =       6.7592E-05

          STORAGE:                                 STORAGE:
          --------                                 --------
      STORAGE CHANGE =       83944.1910        STORAGE CHANGE =       6.7905E-05

 PERCENT DISCREPANCY IS DIFFERENCE BETWEEN IN-OUT MINUS CHANGE IN STORAGE
 DIVIDED BY THE AVERAGE OF IN AND OUT TIMES 100

 PERCENT DISCREPANCY =           0.00     PERCENT DISCREPANCY =          -0.00






 

        AG WELLS          PERIOD    5   STEP   9
 AG WELL      1   LAYER   1   ROW     6   COL     4   RATE     0.00000    
 AG WELL      2   LAYER   1   ROW     6   COL     5   RATE     0.00000    
 AG WELL      3   LAYER   1   ROW     7   COL     4   RATE     0.00000    
 AG WELL      4   LAYER   1   ROW     7   COL     5   RATE     0.00000    
 AG WELL      5   LAYER   1   ROW     8   COL     4   RATE     0.00000    
 AG WELL      6   LAYER   1   ROW     8   COL     5   RATE     0.00000    
 
 

   DIVERSION SEGMENTS     PERIOD    5   STEP   9
 SEGMENT      9   RATE     3.71999    
 
 

        SW IRRIGATION     PERIOD    5   STEP   9
 SEGMENT      9   ROW     6   COL     4   RATE    0.620011    
 SEGMENT      9   ROW     6   COL     5   RATE    0.620011    
 SEGMENT      9   ROW     7   COL     4   RATE    0.620011    
 SEGMENT      9   ROW     7   COL     5   RATE    0.620011    
 SEGMENT      9   ROW     8   COL     4   RATE    0.620011    
 SEGMENT      9   ROW     8   COL     5   RATE    0.620011    
 
 

        GW IRRIGATION     PERIOD    5   STEP   9
 AG WELL      1   ROW     6   COL     4   RATE     0.00000    
 AG WELL      2   ROW     6   COL     5   RATE     0.00000    
 AG WELL      3   ROW     7   COL     4   RATE     0.00000    
 AG WELL      4   ROW     7   COL     5   RATE     0.00000    
 AG WELL      5   ROW     8   COL     4   RATE     0.00000    
 AG WELL      6   ROW     8   COL     5   RATE     0.00000    
 
1
  VOLUMETRIC BUDGET FOR AGRICULTURAL FIELDS AT  END OF TIME STEP    9, STRESS PERIOD   5
  ------------------------------------------------------------------------------

     CUMULATIVE VOLUMES      L**3       RATES FOR THIS TIME STEP      L**3/T
     ------------------                 ------------------------

           IN:                                      IN:
           ---                                      ---
           AG WELLS      =       76629.8672             AG WELLS      =           0.0000
      DIVERSION SEGMENTS =     2861078.0000        DIVERSION SEGMENTS =           3.7200
           GW IRRIGATION =           0.0000             GW IRRIGATION =           0.0000
           SW IRRIGATION =           0.0000             SW IRRIGATION =           0.0000
        SYSTEM LOSSES GW =           0.0000          SYSTEM LOSSES GW =           0.0000
        SYSTEM LOSSES SW =           0.0000          SYSTEM LOSSES SW =           0.0000

                TOTAL IN =     2937707.7500                  TOTAL IN =           3.7200

          OUT:                                     OUT:
          ----                                     ----
           AG WELLS      =           0.0000             AG WELLS      =           0.0000
      DIVERSION SEGMENTS =           0.0000        DIVERSION SEGMENTS =           0.0000
           GW IRRIGATION =       76629.8672             GW IRRIGATION =           0.0000
           SW IRRIGATION =     2861135.0000             SW IRRIGATION =           3.7201
        SYSTEM LOSSES GW =           0.0000          SYSTEM LOSSES GW =           0.0000
        SYSTEM LOSSES SW =           0.0000          SYSTEM LOSSES SW =           0.0000

               TOTAL OUT =     2937764.7500                 TOTAL OUT =           3.7201

                IN - OUT =         -57.0000                  IN - OUT =      -7.4387E-05

     PERCENT DISCREPANCY =          -0.00         PERCENT DISCREPANCY =          -0.00



1
  VOLUMETRIC BUDGET FOR ENTIRE MODEL AT END OF TIME STEP    9, STRESS PERIOD   5
  ------------------------------------------------------------------------------

     CUMULATIVE VOLUMES      L**3       RATES FOR THIS TIME STEP      L**3/T
     ------------------                 ------------------------

           IN:                                      IN:
           ---                                      ---
             STORAGE     =     5581232.5000               STORAGE     =           1.2805
       CONSTANT HEAD     =           0.0000         CONSTANT HEAD     =           0.0000
     HEAD DEP BOUNDS     =     2522924.2500       HEAD DEP BOUNDS     =           0.2879
      STREAM LEAKAGE     =   102316032.0000        STREAM LEAKAGE     =          11.2300
        UZF RECHARGE     =       73223.9531          UZF RECHARGE     =           0.0000
               GW ET     =           0.0000                 GW ET     =           0.0000
     SURFACE LEAKAGE     =           0.0000       SURFACE LEAKAGE     =           0.0000
           AG WELLS      =           0.0000             AG WELLS      =           0.0000

                TOTAL IN =   110493416.0000                  TOTAL IN =          12.7984

          OUT:                                     OUT:
          ----                                     ----
             STORAGE     =    18685902.0000               STORAGE     =           1.4175
       CONSTANT HEAD     =           0.0000         CONSTANT HEAD     =           0.0000
     HEAD DEP BOUNDS     =     2526184.7500       HEAD DEP BOUNDS     =           0.2892
      STREAM LEAKAGE     =    89208440.0000        STREAM LEAKAGE     =          11.0917
        UZF RECHARGE     =           0.0000          UZF RECHARGE     =           0.0000
               GW ET     =           0.0000                 GW ET     =           0.0000
     SURFACE LEAKAGE     =           0.0000       SURFACE LEAKAGE     =           0.0000
           AG WELLS      =       76629.8672             AG WELLS      =           0.0000

               TOTAL OUT =   110497160.0000                 TOTAL OUT =          12.7984

                IN - OUT =       -3744.0000                  IN - OUT =       3.4332E-05

     PERCENT DISCREPANCY =          -0.00         PERCENT DISCREPANCY =           0.00






         TIME SUMMARY AT END OF TIME STEP    9 IN STRESS PERIOD    5
                    SECONDS     MINUTES      HOURS       DAYS        YEARS
                    -----------------------------------------------------------
   TIME STEP LENGTH  87667.      1461.1      24.352      1.0147     2.77799E-03
 STRESS PERIOD TIME 7.89000E+05  13150.      219.17      9.1319     2.50019E-02
         TOTAL TIME 8.76540E+06 1.46090E+05  2434.8      101.45     0.27776    
1
 
 SOLVING FOR HEAD 
                                                   Max.-Head-Change                         Max.-Flux-Residual
  Residual-Control   Outer-Iter.   Inner-Iter.     Column Row Layer    Maximum-Head-Change  Column Row Layer    Maximum-Flux-Residual          L2-NORM 
          0                 1           2             2   13     1      -0.2335959309E-02       2   13    1        -0.1310881786E+00      0.3408513919E+00
          0                 2           2             2   13     1       0.2188170671E-03       2   13    1         0.1262222055E-01      0.3368410540E-01
          0                 3           2             4    7     1      -0.1154084265E-01       4    8    1        -0.6198607002E+00      0.1525278634E+01
          0                 4           2             4    7     1       0.1201643594E-01       4    8    1         0.6633955073E+00      0.1624844513E+01
          0                 5           2             4    7     1      -0.4782755421E-03       4    6    1        -0.2720327174E-01      0.6650432369E-01
          0                 6           1             4    7     1       0.5901719163E-05       4    6    1         0.3450050524E-03      0.8434517443E-03

    ------------------------------------------------
       NWT REQUIRED            6 OUTER ITERATIONS 
       AND A TOTAL OF         11 INNER ITERATIONS.
    ------------------------------------------------

 OUTPUT CONTROL FOR STRESS PERIOD    5   TIME STEP   10
    PRINT BUDGET
    SAVE BUDGET
 UBDSV1 SAVING "         STORAGE" ON UNIT 102 AT TIME STEP 10, STRESS PERIOD   5
 UBDSV2 SAVING "   CONSTANT HEAD" ON UNIT 102 AT TIME STEP 10, STRESS PERIOD   5
 UBDSV1 SAVING "FLOW RIGHT FACE " ON UNIT 102 AT TIME STEP 10, STRESS PERIOD   5
 UBDSV1 SAVING "FLOW FRONT FACE " ON UNIT 102 AT TIME STEP 10, STRESS PERIOD   5

  HEAD DEP BOUNDS   PERIOD    5   STEP    10
 BOUNDARY      1   LAYER   1   ROW    13   COL     1   RATE   -0.289086    
 BOUNDARY      2   LAYER   1   ROW    14   COL     9   RATE    0.287890    



 STREAM LISTING     PERIOD      5   STEP       10

 LAYER ROW COL. STREAM  RCH.  FLOW INTO     FLOW TO   FLOW OUT OF   OVRLND.     DIRECT     STREAM       STREAM     STREAM     STREAM   STREAMBED  STREAMBED
                SEG.NO.  NO.  STRM. RCH.    AQUIFER    STRM. RCH.    RUNOFF     PRECIP       ET          HEAD       DEPTH      WIDTH   CONDCTNC.   GRADIENT

   1    1    1     1     1    1.0500E+01  1.5271E-01   1.0347E+01  0.000E+00  0.000E+00  0.000E+00  1.09396E+03  9.109E-01  8.677E+00  3.905E-02  1.304E+00
   1    2    2     1     2    1.0347E+01  2.3505E-01   1.0112E+01  0.000E+00  0.000E+00  0.000E+00  1.08896E+03  9.059E-01  8.597E+00  6.018E-02  1.302E+00
   1    3    3     1     3    1.0112E+01  1.9904E-01   9.9132E+00  0.000E+00  0.000E+00  0.000E+00  1.08332E+03  9.003E-01  8.505E+00  5.103E-02  1.300E+00
   1    3    4     1     4    9.9132E+00  1.8195E-01   9.7313E+00  0.000E+00  0.000E+00  0.000E+00  1.07830E+03  8.947E-01  8.417E+00  4.672E-02  1.298E+00
   1    4    5     2     1    7.7313E+00  2.8007E-01   7.4512E+00  0.000E+00  0.000E+00  0.000E+00  1.07252E+03  5.907E-01  1.200E+01  7.800E-02  1.197E+00
   1    5    6     2     2    7.4512E+00  2.1474E-01   7.2365E+00  0.000E+00  0.000E+00  0.000E+00  1.06709E+03  5.790E-01  1.200E+01  6.000E-02  1.193E+00
   1    6    6     2     3    7.2365E+00  2.1413E-01   7.0224E+00  0.000E+00  0.000E+00  0.000E+00  1.06236E+03  5.688E-01  1.200E+01  6.000E-02  1.190E+00
   1    7    6     2     4    7.0224E+00  2.1351E-01   6.8088E+00  0.000E+00  0.000E+00  0.000E+00  1.05763E+03  5.585E-01  1.200E+01  6.000E-02  1.186E+00
   1    8    6     2     5    6.8088E+00  2.1289E-01   6.5960E+00  0.000E+00  0.000E+00  0.000E+00  1.05291E+03  5.481E-01  1.200E+01  6.000E-02  1.183E+00
   1    3    5     3     1    2.0000E+00  2.8252E-01   1.7175E+00  0.000E+00  0.000E+00  0.000E+00  1.07555E+03  1.909E+00  9.636E+00  7.227E-02  1.955E+00
   1    3    6     3     2    1.7175E+00  2.4905E-01   1.4684E+00  0.000E+00  0.000E+00  0.000E+00  1.07264E+03  1.727E+00  8.909E+00  6.682E-02  1.864E+00
   1    3    7     3     3    1.4684E+00  1.9718E-01   1.2712E+00  0.000E+00  0.000E+00  0.000E+00  1.06987E+03  1.555E+00  8.218E+00  5.547E-02  1.777E+00
   1    4    8     3     4    1.2712E+00  2.2567E-01   1.0456E+00  0.000E+00  0.000E+00  0.000E+00  1.06682E+03  1.364E+00  7.455E+00  6.709E-02  1.682E+00
   1    5    8     3     5    1.0456E+00  1.5790E-01   8.8768E-01  0.000E+00  0.000E+00  0.000E+00  1.06362E+03  1.164E+00  6.655E+00  4.991E-02  1.582E+00
   1    6    8     3     6    8.8768E-01  5.5980E-02   8.3170E-01  0.000E+00  0.000E+00  0.000E+00  1.06158E+03  1.036E+00  6.145E+00  1.844E-02  1.518E+00
   1    5   10     4     1    1.0000E+01  9.0919E-02   9.9091E+00  0.000E+00  0.000E+00  0.000E+00  1.07836E+03  6.368E-01  1.000E+01  2.500E-02  1.212E+00
   1    5    9     4     2    9.9091E+00  1.8158E-01   9.7275E+00  0.000E+00  0.000E+00  0.000E+00  1.07154E+03  6.315E-01  1.000E+01  5.000E-02  1.211E+00
   1    6    8     4     3    9.7275E+00  1.2689E-01   9.6006E+00  0.000E+00  0.000E+00  0.000E+00  1.06381E+03  6.256E-01  1.000E+01  3.500E-02  1.209E+00
   1    6    8     5     1    1.0432E+01  2.2686E-01   1.0205E+01  0.000E+00  0.000E+00  0.000E+00  1.05868E+03  6.790E-01  1.542E+01  6.166E-02  1.226E+00
   1    7    7     5     2    1.0205E+01  2.7894E-01   9.9265E+00  0.000E+00  0.000E+00  0.000E+00  1.05417E+03  6.732E-01  1.519E+01  7.594E-02  1.224E+00
   1    8    7     5     3    9.9265E+00  1.9221E-01   9.7343E+00  0.000E+00  0.000E+00  0.000E+00  1.04992E+03  6.676E-01  1.497E+01  5.241E-02  1.223E+00
   1    8    6     5     4    9.7343E+00  1.3577E-01   9.5985E+00  0.000E+00  0.000E+00  0.000E+00  1.04691E+03  6.637E-01  1.482E+01  3.706E-02  1.221E+00
   1    9    6     6     1    1.2474E+01  2.2801E-01   1.2246E+01  0.000E+00  0.000E+00  0.000E+00  1.04353E+03  8.002E-01  1.200E+01  6.000E-02  1.267E+00
   1   10    7     6     2    1.2246E+01  2.2748E-01   1.2019E+01  0.000E+00  0.000E+00  0.000E+00  1.03897E+03  7.913E-01  1.200E+01  6.000E-02  1.264E+00
   1   11    7     6     3    1.2019E+01  2.2694E-01   1.1792E+01  0.000E+00  0.000E+00  0.000E+00  1.03442E+03  7.824E-01  1.200E+01  6.000E-02  1.261E+00
   1   12    7     6     4    1.1792E+01  2.2640E-01   1.1566E+01  0.000E+00  0.000E+00  0.000E+00  1.02986E+03  7.734E-01  1.200E+01  6.000E-02  1.258E+00
   1   13    7     6     5    1.1566E+01 -4.1863E-02   1.1608E+01  0.000E+00  0.000E+00  0.000E+00  1.02668E+03  7.697E-01  1.200E+01  2.400E-01 -5.814E-02
   1   14    9     7     1    1.5000E+02  1.3671E+00   1.4863E+02  0.000E+00  0.000E+00  0.000E+00  1.03987E+03  2.288E+00  5.529E+01  5.593E-01  8.148E-01
   1   13    8     7     2    1.4863E+02  1.9167E+00   1.4672E+02  0.000E+00  0.000E+00  0.000E+00  1.03478E+03  2.279E+00  5.526E+01  6.148E-01  1.039E+00
   1   13    7     7     3    1.4672E+02  1.5834E+00   1.4513E+02  0.000E+00  0.000E+00  0.000E+00  1.02969E+03  2.270E+00  5.521E+01  5.584E-01  9.452E-01
   1   13    6     8     1    1.5674E+02  9.4699E-01   1.5579E+02  0.000E+00  0.000E+00  0.000E+00  1.02474E+03  2.860E+00  4.148E+01  4.227E-01  7.469E-01
   1   13    5     8     2    1.5579E+02  2.0218E-01   1.5559E+02  0.000E+00  0.000E+00  0.000E+00  1.01848E+03  2.856E+00  4.142E+01  4.221E-01  1.597E-01
   1   13    4     8     3    1.5559E+02 -2.4453E+00   1.5804E+02  0.000E+00  0.000E+00  0.000E+00  1.01224E+03  2.864E+00  4.153E+01  4.232E+00 -1.926E-01
   1   13    3     8     4    1.5804E+02 -3.7229E+00   1.6176E+02  0.000E+00  0.000E+00  0.000E+00  1.00601E+03  2.885E+00  4.183E+01  4.263E+00 -2.911E-01
   1   13    2     8     5    1.6176E+02 -2.7393E+00   1.6450E+02  0.000E+00  0.000E+00  0.000E+00  9.99782E+02  2.907E+00  4.215E+01  4.295E+00 -2.126E-01
   1   13    1     8     6    1.6450E+02 -2.0979E+00   1.6660E+02  0.000E+00  0.000E+00  0.000E+00  9.94798E+02  2.923E+00  4.238E+01  2.591E+00 -2.699E-01
   1    8    6     9     1    3.7200E+00  0.0000E+00   3.7200E+00  0.000E+00  0.000E+00  0.000E+00  1.08000E+03  1.252E+00  4.000E+00  0.000E+00  1.417E+00
   1    8    5     9     2    3.7200E+00  0.0000E+00   3.7200E+00  0.000E+00  0.000E+00  0.000E+00  1.07950E+03  1.252E+00  4.000E+00  0.000E+00  1.417E+00



 UBDSV3 SAVING "           GW ET" ON UNIT  61 AT TIME STEP 10, STRESS PERIOD   5
 UBDSV3 SAVING "    UZF RECHARGE" ON UNIT  61 AT TIME STEP 10, STRESS PERIOD   5
 UBDSV3 SAVING " SURFACE LEAKAGE" ON UNIT  61 AT TIME STEP 10, STRESS PERIOD   5
 UBDSV3 SAVING "       HORT+DUNN" ON UNIT  61 AT TIME STEP 10, STRESS PERIOD   5
 UBDSV3 SAVING "  STORAGE CHANGE" ON UNIT  61 AT TIME STEP 10, STRESS PERIOD   5


UNSATURATED ZONE PACKAGE VOLUMETRIC BUDGET FOR  TIME STEP    10 STRESS PERIOD    5
  ------------------------------------------------------------------------------



     CUMULATIVE VOLUMES      L**3       RATES FOR THIS TIME STEP      L**3/T
     ------------------                 ------------------------

           IN:                                      IN:
           ---                                      ---
        INFILTRATION =    10766864.5651          INFILTRATION =           4.5676

          OUT:                                     OUT:
          ----                                     ----
              UZF ET =    10609689.8421                UZF ET =           4.5675
        UZF RECHARGE =       73224.0000          UZF RECHARGE =       0.0000E+00

            IN - OUT =       83950.7230              IN - OUT =       6.6578E-05

          STORAGE:                                 STORAGE:
          --------                                 --------
      STORAGE CHANGE =       83950.0256        STORAGE CHANGE =       6.6554E-05

 PERCENT DISCREPANCY IS DIFFERENCE BETWEEN IN-OUT MINUS CHANGE IN STORAGE
 DIVIDED BY THE AVERAGE OF IN AND OUT TIMES 100

 PERCENT DISCREPANCY =           0.00     PERCENT DISCREPANCY =           0.00






 

        AG WELLS          PERIOD    5   STEP  10
 AG WELL      1   LAYER   1   ROW     6   COL     4   RATE     0.00000    
 AG WELL      2   LAYER   1   ROW     6   COL     5   RATE     0.00000    
 AG WELL      3   LAYER   1   ROW     7   COL     4   RATE     0.00000    
 AG WELL      4   LAYER   1   ROW     7   COL     5   RATE     0.00000    
 AG WELL      5   LAYER   1   ROW     8   COL     4   RATE     0.00000    
 AG WELL      6   LAYER   1   ROW     8   COL     5   RATE     0.00000    
 
 

   DIVERSION SEGMENTS     PERIOD    5   STEP  10
 SEGMENT      9   RATE     3.71999    
 
 

        SW IRRIGATION     PERIOD    5   STEP  10
 SEGMENT      9   ROW     6   COL     4   RATE    0.620011    
 SEGMENT      9   ROW     6   COL     5   RATE    0.620011    
 SEGMENT      9   ROW     7   COL     4   RATE    0.620011    
 SEGMENT      9   ROW     7   COL     5   RATE    0.620011    
 SEGMENT      9   ROW     8   COL     4   RATE    0.620011    
 SEGMENT      9   ROW     8   COL     5   RATE    0.620011    
 
 

        GW IRRIGATION     PERIOD    5   STEP  10
 AG WELL      1   ROW     6   COL     4   RATE     0.00000    
 AG WELL      2   ROW     6   COL     5   RATE     0.00000    
 AG WELL      3   ROW     7   COL     4   RATE     0.00000    
 AG WELL      4   ROW     7   COL     5   RATE     0.00000    
 AG WELL      5   ROW     8   COL     4   RATE     0.00000    
 AG WELL      6   ROW     8   COL     5   RATE     0.00000    
 
1
  VOLUMETRIC BUDGET FOR AGRICULTURAL FIELDS AT  END OF TIME STEP   10, STRESS PERIOD   5
  ------------------------------------------------------------------------------

     CUMULATIVE VOLUMES      L**3       RATES FOR THIS TIME STEP      L**3/T
     ------------------                 ------------------------

           IN:                                      IN:
           ---                                      ---
           AG WELLS      =       76629.8672             AG WELLS      =           0.0000
      DIVERSION SEGMENTS =     3187197.2500        DIVERSION SEGMENTS =           3.7200
           GW IRRIGATION =           0.0000             GW IRRIGATION =           0.0000
           SW IRRIGATION =           0.0000             SW IRRIGATION =           0.0000
        SYSTEM LOSSES GW =           0.0000          SYSTEM LOSSES GW =           0.0000
        SYSTEM LOSSES SW =           0.0000          SYSTEM LOSSES SW =           0.0000

                TOTAL IN =     3263827.0000                  TOTAL IN =           3.7200

          OUT:                                     OUT:
          ----                                     ----
           AG WELLS      =           0.0000             AG WELLS      =           0.0000
      DIVERSION SEGMENTS =           0.0000        DIVERSION SEGMENTS =           0.0000
           GW IRRIGATION =       76629.8672             GW IRRIGATION =           0.0000
           SW IRRIGATION =     3187260.7500             SW IRRIGATION =           3.7201
        SYSTEM LOSSES GW =           0.0000          SYSTEM LOSSES GW =           0.0000
        SYSTEM LOSSES SW =           0.0000          SYSTEM LOSSES SW =           0.0000

               TOTAL OUT =     3263890.5000                 TOTAL OUT =           3.7201

                IN - OUT =         -63.5000                  IN - OUT =      -7.4148E-05

     PERCENT DISCREPANCY =          -0.00         PERCENT DISCREPANCY =          -0.00



1
  VOLUMETRIC BUDGET FOR ENTIRE MODEL AT END OF TIME STEP   10, STRESS PERIOD   5
  ------------------------------------------------------------------------------

     CUMULATIVE VOLUMES      L**3       RATES FOR THIS TIME STEP      L**3/T
     ------------------                 ------------------------

           IN:                                      IN:
           ---                                      ---
             STORAGE     =     5688887.0000               STORAGE     =           1.2280
       CONSTANT HEAD     =           0.0000         CONSTANT HEAD     =           0.0000
     HEAD DEP BOUNDS     =     2548162.5000       HEAD DEP BOUNDS     =           0.2879
      STREAM LEAKAGE     =   103300608.0000        STREAM LEAKAGE     =          11.2309
        UZF RECHARGE     =       73223.9531          UZF RECHARGE     =           0.0000
               GW ET     =           0.0000                 GW ET     =           0.0000
     SURFACE LEAKAGE     =           0.0000       SURFACE LEAKAGE     =           0.0000
           AG WELLS      =           0.0000             AG WELLS      =           0.0000

                TOTAL IN =   111610880.0000                  TOTAL IN =          12.7468

          OUT:                                     OUT:
          ----                                     ----
             STORAGE     =    18809544.0000               STORAGE     =           1.4104
       CONSTANT HEAD     =           0.0000         CONSTANT HEAD     =           0.0000
     HEAD DEP BOUNDS     =     2551528.0000       HEAD DEP BOUNDS     =           0.2891
      STREAM LEAKAGE     =    90176920.0000        STREAM LEAKAGE     =          11.0473
        UZF RECHARGE     =           0.0000          UZF RECHARGE     =           0.0000
               GW ET     =           0.0000                 GW ET     =           0.0000
     SURFACE LEAKAGE     =           0.0000       SURFACE LEAKAGE     =           0.0000
           AG WELLS      =       76629.8672             AG WELLS      =           0.0000

               TOTAL OUT =   111614624.0000                 TOTAL OUT =          12.7467

                IN - OUT =       -3744.0000                  IN - OUT =       3.5286E-05

     PERCENT DISCREPANCY =          -0.00         PERCENT DISCREPANCY =           0.00






         TIME SUMMARY AT END OF TIME STEP   10 IN STRESS PERIOD    5
                    SECONDS     MINUTES      HOURS       DAYS        YEARS
                    -----------------------------------------------------------
   TIME STEP LENGTH  87667.      1461.1      24.352      1.0147     2.77799E-03
 STRESS PERIOD TIME 8.76667E+05  14611.      243.52      10.147     2.77799E-02
         TOTAL TIME 8.85306E+06 1.47551E+05  2459.2      102.47     0.28054    
1
 
 SOLVING FOR HEAD 
                                                   Max.-Head-Change                         Max.-Flux-Residual
  Residual-Control   Outer-Iter.   Inner-Iter.     Column Row Layer    Maximum-Head-Change  Column Row Layer    Maximum-Flux-Residual          L2-NORM 
          0                 1           2             2   13     1      -0.2068835676E-02       2   13    1        -0.1160705654E+00      0.3233073830E+00
          0                 2           2             2   13     1       0.1940290957E-03       2   13    1         0.1118971641E-01      0.3200452505E-01
          0                 3           2             4    7     1      -0.1154082132E-01       4    8    1        -0.6198602076E+00      0.1525280348E+01
          0                 4           2             4    7     1       0.1201643629E-01       4    8    1         0.6633952938E+00      0.1624852846E+01
          0                 5           2             4    7     1      -0.4782805224E-03       4    6    1        -0.2722518307E-01      0.6651330811E-01
          0                 6           1             4    7     1       0.5901780772E-05       4    6    1         0.3452829251E-03      0.8435655636E-03

    ------------------------------------------------
       NWT REQUIRED            6 OUTER ITERATIONS 
       AND A TOTAL OF         11 INNER ITERATIONS.
    ------------------------------------------------

 NO OUTPUT CONTROL FOR STRESS PERIOD    5   TIME STEP   11
 
 SOLVING FOR HEAD 
                                                   Max.-Head-Change                         Max.-Flux-Residual
  Residual-Control   Outer-Iter.   Inner-Iter.     Column Row Layer    Maximum-Head-Change  Column Row Layer    Maximum-Flux-Residual          L2-NORM 
          0                 1           2             2   13     1      -0.1821021520E-02       2   13    1        -0.1021395636E+00      0.3083259457E+00
          0                 2           2             2   13     1       0.1709317138E-03       2   13    1         0.9854953528E-02      0.3057102510E-01
          0                 3           2             4    7     1      -0.1154080104E-01       4    8    1        -0.6198597718E+00      0.1525282014E+01
          0                 4           2             4    7     1       0.1201643667E-01       4    8    1         0.6633950843E+00      0.1624861111E+01
          0                 5           2             4    7     1      -0.4782854651E-03       4    6    1        -0.2724692446E-01      0.6652223587E-01
          0                 6           1             4    7     1       0.5901841484E-05       4    6    1         0.3455586545E-03      0.8436796254E-03

    ------------------------------------------------
       NWT REQUIRED            6 OUTER ITERATIONS 
       AND A TOTAL OF         11 INNER ITERATIONS.
    ------------------------------------------------

 NO OUTPUT CONTROL FOR STRESS PERIOD    5   TIME STEP   12
 
 SOLVING FOR HEAD 
                                                   Max.-Head-Change                         Max.-Flux-Residual
  Residual-Control   Outer-Iter.   Inner-Iter.     Column Row Layer    Maximum-Head-Change  Column Row Layer    Maximum-Flux-Residual          L2-NORM 
          0                 1           2             2   13     1      -0.1591271420E-02       2   13    1        -0.8922511291E-01      0.2956597949E+00
          0                 2           2             2   13     1       0.1495122995E-03       2   13    1         0.8617277036E-02      0.2935983311E-01
          0                 3           2             4    7     1      -0.1154078390E-01       4    8    1        -0.6198594157E+00      0.1525283897E+01
          0                 4           2             4    7     1       0.1201640735E-01       4    8    1         0.6633932314E+00      0.1624865275E+01
          0                 5           2             4    7     1      -0.4782590776E-03       4    6    1        -0.2726672613E-01      0.6652676892E-01
          0                 6           1             4    7     1       0.5901516190E-05       4    6    1         0.3458097892E-03      0.8440243351E-03

    ------------------------------------------------
       NWT REQUIRED            6 OUTER ITERATIONS 
       AND A TOTAL OF         11 INNER ITERATIONS.
    ------------------------------------------------

 NO OUTPUT CONTROL FOR STRESS PERIOD    5   TIME STEP   13
 
 SOLVING FOR HEAD 
                                                   Max.-Head-Change                         Max.-Flux-Residual
  Residual-Control   Outer-Iter.   Inner-Iter.     Column Row Layer    Maximum-Head-Change  Column Row Layer    Maximum-Flux-Residual          L2-NORM 
          0                 1           2             3    2     1       0.1455978159E-02       1   13    1        -0.7859890040E-01      0.2850701072E+00
          0                 2           2             3    2     1      -0.1416270439E-03       1   13    1         0.7660040086E-02      0.2834943592E-01
          0                 3           2             4    7     1      -0.1154076504E-01       4    8    1        -0.6198589276E+00      0.1525285391E+01
          0                 4           2             4    7     1       0.1201640235E-01       4    8    1         0.6633927202E+00      0.1624872634E+01
          0                 5           2             4    7     1      -0.4782595252E-03       4    6    1        -0.2728786655E-01      0.6653495157E-01
          0                 6           1             4    7     1       0.5901522015E-05       4    6    1         0.3460827481E-03      0.8439352308E-03

    ------------------------------------------------
       NWT REQUIRED            6 OUTER ITERATIONS 
       AND A TOTAL OF         11 INNER ITERATIONS.
    ------------------------------------------------

 NO OUTPUT CONTROL FOR STRESS PERIOD    5   TIME STEP   14
 
 SOLVING FOR HEAD 
                                                   Max.-Head-Change                         Max.-Flux-Residual
  Residual-Control   Outer-Iter.   Inner-Iter.     Column Row Layer    Maximum-Head-Change  Column Row Layer    Maximum-Flux-Residual          L2-NORM 
          0                 1           2             3    2     1       0.1448713110E-02       3    2    1         0.7554005583E-01      0.2763165592E+00
          0                 2           2             3    2     1      -0.1409203509E-03       3    2    1        -0.7554010318E-02      0.2751368448E-01
          0                 3           2             4    7     1      -0.1154074774E-01       4    8    1        -0.6198585287E+00      0.1525286900E+01
          0                 4           2             4    7     1       0.1201639812E-01       4    8    1         0.6633922550E+00      0.1624880042E+01
          0                 5           2             4    7     1      -0.4782606666E-03       4    6    1        -0.2730888449E-01      0.6654319177E-01
          0                 6           1             4    7     1       0.5901535457E-05       4    6    1         0.3463550679E-03      0.8439528772E-03

    ------------------------------------------------
       NWT REQUIRED            6 OUTER ITERATIONS 
       AND A TOTAL OF         11 INNER ITERATIONS.
    ------------------------------------------------

 NO OUTPUT CONTROL FOR STRESS PERIOD    5   TIME STEP   15
 
 SOLVING FOR HEAD 
                                                   Max.-Head-Change                         Max.-Flux-Residual
  Residual-Control   Outer-Iter.   Inner-Iter.     Column Row Layer    Maximum-Head-Change  Column Row Layer    Maximum-Flux-Residual          L2-NORM 
          0                 1           2             3    2     1       0.1441567160E-02       3    2    1         0.7516336874E-01      0.2691736323E+00
          0                 2           2             3    2     1      -0.1402252439E-03       3    2    1        -0.7516341535E-02      0.2683255600E-01
          0                 3           2             4    7     1      -0.1154073375E-01       4    8    1        -0.6198582238E+00      0.1525288780E+01
          0                 4           2             4    7     1       0.1201639767E-01       4    8    1         0.6633919951E+00      0.1624887871E+01
          0                 5           2             4    7     1      -0.4782633198E-03       4    6    1        -0.2732981781E-01      0.6655158828E-01
          0                 6           1             4    7     1       0.5901568613E-05       4    6    1         0.3466262774E-03      0.8440639503E-03

    ------------------------------------------------
       NWT REQUIRED            6 OUTER ITERATIONS 
       AND A TOTAL OF         11 INNER ITERATIONS.
    ------------------------------------------------

 NO OUTPUT CONTROL FOR STRESS PERIOD    5   TIME STEP   16
 
 SOLVING FOR HEAD 
                                                   Max.-Head-Change                         Max.-Flux-Residual
  Residual-Control   Outer-Iter.   Inner-Iter.     Column Row Layer    Maximum-Head-Change  Column Row Layer    Maximum-Flux-Residual          L2-NORM 
          0                 1           2             3    2     1       0.1434538492E-02       3    2    1         0.7479285681E-01      0.2634345507E+00
          0                 2           2             3    2     1      -0.1395415452E-03       3    2    1        -0.7479290273E-02      0.2628538678E-01
          0                 3           2             4    7     1      -0.1154071857E-01       4    8    1        -0.6198578197E+00      0.1525290232E+01
          0                 4           2             4    7     1       0.1201639278E-01       4    8    1         0.6633914898E+00      0.1624895012E+01
          0                 5           2             4    7     1      -0.4782636528E-03       4    6    1        -0.2735043329E-01      0.6655960038E-01
          0                 6           1             4    7     1       0.5901572646E-05       4    6    1         0.3468933896E-03      0.8441724227E-03

    ------------------------------------------------
       NWT REQUIRED            6 OUTER ITERATIONS 
       AND A TOTAL OF         11 INNER ITERATIONS.
    ------------------------------------------------

 NO OUTPUT CONTROL FOR STRESS PERIOD    5   TIME STEP   17
 
 SOLVING FOR HEAD 
                                                   Max.-Head-Change                         Max.-Flux-Residual
  Residual-Control   Outer-Iter.   Inner-Iter.     Column Row Layer    Maximum-Head-Change  Column Row Layer    Maximum-Flux-Residual          L2-NORM 
          0                 1           2             3    2     1       0.1427540117E-02       3    2    1         0.7442400627E-01      0.2588962906E+00
          0                 2           2             3    2     1      -0.1388607930E-03       3    2    1        -0.7442405140E-02      0.2585210315E-01
          0                 3           2             4    7     1      -0.1154070549E-01       4    8    1        -0.6198575396E+00      0.1525292080E+01
          0                 4           2             4    7     1       0.1201638979E-01       4    8    1         0.6633910925E+00      0.1624902347E+01
          0                 5           2             4    7     1      -0.4782647242E-03       4    6    1        -0.2737092832E-01      0.6656766563E-01
          0                 6           1             4    7     1       0.5901585864E-05       4    6    1         0.3471589403E-03      0.8442815151E-03

    ------------------------------------------------
       NWT REQUIRED            6 OUTER ITERATIONS 
       AND A TOTAL OF         11 INNER ITERATIONS.
    ------------------------------------------------

 NO OUTPUT CONTROL FOR STRESS PERIOD    5   TIME STEP   18
 
 SOLVING FOR HEAD 
                                                   Max.-Head-Change                         Max.-Flux-Residual
  Residual-Control   Outer-Iter.   Inner-Iter.     Column Row Layer    Maximum-Head-Change  Column Row Layer    Maximum-Flux-Residual          L2-NORM 
          0                 1           2             3    2     1       0.1420739948E-02       3    2    1         0.7406556561E-01      0.2553846323E+00
          0                 2           2             3    2     1      -0.1381993207E-03       3    2    1        -0.7406560996E-02      0.2551624223E-01
          0                 3           2             4    7     1      -0.1154069331E-01       4    8    1        -0.6198572285E+00      0.1525293566E+01
          0                 4           2             4    7     1       0.1201638753E-01       4    8    1         0.6633907328E+00      0.1624909691E+01
          0                 5           2             4    7     1      -0.4782664826E-03       4    6    1        -0.2739127685E-01      0.6657576342E-01
          0                 6           1             4    7     1       0.5901607147E-05       4    6    1         0.3474225921E-03      0.8443919279E-03

    ------------------------------------------------
       NWT REQUIRED            6 OUTER ITERATIONS 
       AND A TOTAL OF         11 INNER ITERATIONS.
    ------------------------------------------------

 NO OUTPUT CONTROL FOR STRESS PERIOD    5   TIME STEP   19
 
 SOLVING FOR HEAD 
                                                   Max.-Head-Change                         Max.-Flux-Residual
  Residual-Control   Outer-Iter.   Inner-Iter.     Column Row Layer    Maximum-Head-Change  Column Row Layer    Maximum-Flux-Residual          L2-NORM 
          0                 1           2             3    2     1       0.1414051295E-02       3    2    1         0.7371298215E-01      0.2527378618E+00
          0                 2           2             3    2     1      -0.1375486958E-03       3    2    1        -0.7371302573E-02      0.2526233391E-01
          0                 3           2             4    7     1      -0.1154068196E-01       4    8    1        -0.6198569340E+00      0.1525295213E+01
          0                 4           2             4    7     1       0.1201638456E-01       4    8    1         0.6633903345E+00      0.1624923724E+01
          0                 5           2             4    7     1      -0.4782674721E-03       4    6    1        -0.2741140468E-01      0.6658408997E-01
          0                 6           1             4    7     1       0.5901619693E-05       4    6    1         0.3476833774E-03      0.8445035155E-03

    ------------------------------------------------
       NWT REQUIRED            6 OUTER ITERATIONS 
       AND A TOTAL OF         11 INNER ITERATIONS.
    ------------------------------------------------

 NO OUTPUT CONTROL FOR STRESS PERIOD    5   TIME STEP   20
 
 SOLVING FOR HEAD 
                                                   Max.-Head-Change                         Max.-Flux-Residual
  Residual-Control   Outer-Iter.   Inner-Iter.     Column Row Layer    Maximum-Head-Change  Column Row Layer    Maximum-Flux-Residual          L2-NORM 
          0                 1           2             3    2     1       0.1407386962E-02       3    2    1         0.7336176101E-01      0.2508004855E+00
          0                 2           2             3    2     1      -0.1369004369E-03       3    2    1        -0.7336180387E-02      0.2507521058E-01
          0                 3           2             4    7     1      -0.1154067143E-01       4    8    1        -0.6198566532E+00      0.1525296747E+01
          0                 4           2             4    7     1       0.1201638233E-01       4    8    1         0.6633899770E+00      0.1624930921E+01
          0                 5           2             4    7     1      -0.4782691518E-03       4    6    1        -0.2743140250E-01      0.6659206355E-01
          0                 6           1             4    7     1       0.5901639856E-05       4    6    1         0.3479424915E-03      0.8446259185E-03

    ------------------------------------------------
       NWT REQUIRED            6 OUTER ITERATIONS 
       AND A TOTAL OF         11 INNER ITERATIONS.
    ------------------------------------------------

 NO OUTPUT CONTROL FOR STRESS PERIOD    5   TIME STEP   21
 
 SOLVING FOR HEAD 
                                                   Max.-Head-Change                         Max.-Flux-Residual
  Residual-Control   Outer-Iter.   Inner-Iter.     Column Row Layer    Maximum-Head-Change  Column Row Layer    Maximum-Flux-Residual          L2-NORM 
          0                 1           2             3    2     1       0.1400914205E-02       3    2    1         0.7302064031E-01      0.2494575097E+00
          0                 2           2             3    2     1      -0.1362708135E-03       3    2    1        -0.7302068247E-02      0.2494459369E-01
          0                 3           2             4    7     1      -0.1154066052E-01       4    8    1        -0.6198563716E+00      0.1525298133E+01
          0                 4           2             4    7     1       0.1201637751E-01       4    8    1         0.6633894803E+00      0.1624942523E+01
          0                 5           2             4    7     1      -0.4782692883E-03       4    6    1        -0.2745113635E-01      0.6660001680E-01
          0                 6           1             4    7     1       0.5901642320E-05       4    6    1         0.3481981964E-03      0.8447205569E-03

    ------------------------------------------------
       NWT REQUIRED            6 OUTER ITERATIONS 
       AND A TOTAL OF         11 INNER ITERATIONS.
    ------------------------------------------------

 NO OUTPUT CONTROL FOR STRESS PERIOD    5   TIME STEP   22
 
 SOLVING FOR HEAD 
                                                   Max.-Head-Change                         Max.-Flux-Residual
  Residual-Control   Outer-Iter.   Inner-Iter.     Column Row Layer    Maximum-Head-Change  Column Row Layer    Maximum-Flux-Residual          L2-NORM 
          0                 1           2             3    2     1       0.1394462748E-02       3    2    1         0.7268061315E-01      0.2485933804E+00
          0                 2           2             3    2     1      -0.1356432615E-03       3    2    1        -0.7268065469E-02      0.2485959129E-01
          0                 3           2             4    7     1      -0.1154065146E-01       4    8    1        -0.6198561139E+00      0.1525299759E+01
          0                 4           2             4    7     1       0.1201637529E-01       4    8    1         0.6633891243E+00      0.1624949566E+01
          0                 5           2             4    7     1      -0.4782708861E-03       4    6    1        -0.2747076980E-01      0.6660786255E-01
          0                 6           1             4    7     1       0.5901662035E-05       4    6    1         0.3484525751E-03      0.8448316777E-03

    ------------------------------------------------
       NWT REQUIRED            6 OUTER ITERATIONS 
       AND A TOTAL OF         11 INNER ITERATIONS.
    ------------------------------------------------

 NO OUTPUT CONTROL FOR STRESS PERIOD    5   TIME STEP   23
 
 SOLVING FOR HEAD 
                                                   Max.-Head-Change                         Max.-Flux-Residual
  Residual-Control   Outer-Iter.   Inner-Iter.     Column Row Layer    Maximum-Head-Change  Column Row Layer    Maximum-Flux-Residual          L2-NORM 
          0                 1           2             3    2     1       0.1388114402E-02       3    2    1         0.7234611010E-01      0.2481272000E+00
          0                 2           2             3    2     1      -0.1350257391E-03       3    2    1        -0.7234615071E-02      0.2481097885E-01
          0                 3           2             4    7     1      -0.1154064305E-01       4    8    1        -0.6198558674E+00      0.1525301106E+01
          0                 4           2             4    7     1       0.1201637235E-01       4    8    1         0.6633887294E+00      0.1624961994E+01
          0                 5           2             4    7     1      -0.4782717152E-03       4    6    1        -0.2749018515E-01      0.6661580893E-01
          0                 6           1             4    7     1       0.5901672340E-05       4    6    1         0.3487041406E-03      0.8449455311E-03

    ------------------------------------------------
       NWT REQUIRED            6 OUTER ITERATIONS 
       AND A TOTAL OF         11 INNER ITERATIONS.
    ------------------------------------------------

 NO OUTPUT CONTROL FOR STRESS PERIOD    5   TIME STEP   24
 
 SOLVING FOR HEAD 
                                                   Max.-Head-Change                         Max.-Flux-Residual
  Residual-Control   Outer-Iter.   Inner-Iter.     Column Row Layer    Maximum-Head-Change  Column Row Layer    Maximum-Flux-Residual          L2-NORM 
          0                 1           2             3    2     1       0.1381953092E-02       3    2    1         0.7202137327E-01      0.2479677368E+00
          0                 2           2             3    2     1      -0.1344264111E-03       3    2    1        -0.7202141338E-02      0.2479213716E-01
          0                 3           2             4    7     1      -0.1154063525E-01       4    8    1        -0.6198556306E+00      0.1525302495E+01
          0                 4           2             4    7     1       0.1201637013E-01       4    8    1         0.6633883749E+00      0.1624968902E+01
          0                 5           2             4    7     1      -0.4782732349E-03       4    6    1        -0.2750947336E-01      0.6662352746E-01
          0                 6           1             4    7     1       0.5901690711E-05       4    6    1         0.3489540484E-03      0.8450521762E-03

    ------------------------------------------------
       NWT REQUIRED            6 OUTER ITERATIONS 
       AND A TOTAL OF         11 INNER ITERATIONS.
    ------------------------------------------------

 NO OUTPUT CONTROL FOR STRESS PERIOD    5   TIME STEP   25
 
 SOLVING FOR HEAD 
                                                   Max.-Head-Change                         Max.-Flux-Residual
  Residual-Control   Outer-Iter.   Inner-Iter.     Column Row Layer    Maximum-Head-Change  Column Row Layer    Maximum-Flux-Residual          L2-NORM 
          0                 1           2             3    2     1       0.1375806806E-02       3    2    1         0.7169749424E-01      0.2480549596E+00
          0                 2           2             3    2     1      -0.1338285436E-03       3    2    1        -0.7169753344E-02      0.2479662770E-01
          0                 3           2             4    7     1      -0.1154062805E-01       4    8    1        -0.6198554484E+00      0.1525303825E+01
          0                 4           2             4    7     1       0.1201627545E-01       4    8    1         0.6633879845E+00      0.1624974811E+01
          0                 5           2             4    7     1      -0.4781810922E-03       4    8    1        -0.2713594896E-01      0.6646813848E-01
          0                 6           1             4    7     1       0.5900553526E-05       4    7    1         0.3441593099E-03      0.8429876780E-03

    ------------------------------------------------
       NWT REQUIRED            6 OUTER ITERATIONS 
       AND A TOTAL OF         11 INNER ITERATIONS.
    ------------------------------------------------

 NO OUTPUT CONTROL FOR STRESS PERIOD    5   TIME STEP   26
 
 SOLVING FOR HEAD 
                                                   Max.-Head-Change                         Max.-Flux-Residual
  Residual-Control   Outer-Iter.   Inner-Iter.     Column Row Layer    Maximum-Head-Change  Column Row Layer    Maximum-Flux-Residual          L2-NORM 
          0                 1           2             3    2     1       0.1369758238E-02       3    2    1         0.7137881410E-01      0.2483334895E+00
          0                 2           2             3    2     1      -0.1332401824E-03       3    2    1        -0.7137885296E-02      0.2481917682E-01
          0                 3           2             4    7     1      -0.1154062030E-01       4    8    1        -0.6198551673E+00      0.1525305162E+01
          0                 4           2             4    7     1       0.1201626618E-01       4    8    1         0.6633874879E+00      0.1624973744E+01
          0                 5           2             4    7     1      -0.4781765216E-03       4    8    1        -0.2713569023E-01      0.6646752196E-01
          0                 6           1             4    7     1       0.5900497070E-05       4    7    1         0.3441560191E-03      0.8429864196E-03

    ------------------------------------------------
       NWT REQUIRED            6 OUTER ITERATIONS 
       AND A TOTAL OF         11 INNER ITERATIONS.
    ------------------------------------------------

 NO OUTPUT CONTROL FOR STRESS PERIOD    5   TIME STEP   27
 
 SOLVING FOR HEAD 
                                                   Max.-Head-Change                         Max.-Flux-Residual
  Residual-Control   Outer-Iter.   Inner-Iter.     Column Row Layer    Maximum-Head-Change  Column Row Layer    Maximum-Flux-Residual          L2-NORM 
          0                 1           2             3    2     1       0.1363890629E-02       3    2    1         0.7106962064E-01      0.2487502013E+00
          0                 2           2             3    2     1      -0.1326694225E-03       3    2    1        -0.7106965862E-02      0.2485470355E-01
          0                 3           2             4    7     1      -0.1154061526E-01       4    8    1        -0.6198550126E+00      0.1525306540E+01
          0                 4           2             4    7     1       0.1201626141E-01       4    8    1         0.6633872385E+00      0.1624972906E+01
          0                 5           2             4    7     1      -0.4781742310E-03       4    8    1        -0.2713556081E-01      0.6646675778E-01
          0                 6           1             4    7     1       0.5900469066E-05       4    8    1         0.3441540412E-03      0.8429728858E-03

    ------------------------------------------------
       NWT REQUIRED            6 OUTER ITERATIONS 
       AND A TOTAL OF         11 INNER ITERATIONS.
    ------------------------------------------------

 NO OUTPUT CONTROL FOR STRESS PERIOD    5   TIME STEP   28
 
 SOLVING FOR HEAD 
                                                   Max.-Head-Change                         Max.-Flux-Residual
  Residual-Control   Outer-Iter.   Inner-Iter.     Column Row Layer    Maximum-Head-Change  Column Row Layer    Maximum-Flux-Residual          L2-NORM 
          0                 1           2             4   13     1       0.2970909489E-02       4   13    1         0.1707896402E+00      0.4106913779E+00
          0                 2           2             7   13     1      -0.6833646870E-03       7   13    1        -0.3790024373E-01      0.5465127239E-01
          0                 3           2             4    7     1      -0.1154060804E-01       4    8    1        -0.6198547457E+00      0.1525059696E+01
          0                 4           2             4    7     1       0.1201625217E-01       4    8    1         0.6633867428E+00      0.1624972669E+01
          0                 5           2             4    7     1      -0.4781696617E-03       4    8    1        -0.2713530211E-01      0.6646618073E-01
          0                 6           1             4    7     1       0.5900412834E-05       4    8    1         0.3441507458E-03      0.8429647685E-03

    ------------------------------------------------
       NWT REQUIRED            6 OUTER ITERATIONS 
       AND A TOTAL OF         11 INNER ITERATIONS.
    ------------------------------------------------

 NO OUTPUT CONTROL FOR STRESS PERIOD    5   TIME STEP   29
 
 SOLVING FOR HEAD 
                                                   Max.-Head-Change                         Max.-Flux-Residual
  Residual-Control   Outer-Iter.   Inner-Iter.     Column Row Layer    Maximum-Head-Change  Column Row Layer    Maximum-Flux-Residual          L2-NORM 
          0                 1           2             4   13     1       0.1109012270E-01       4   13    1         0.6375544970E+00      0.1196402773E+01
          0                 2           2             4   13     1      -0.1067614189E-02       4   13    1        -0.6310601587E-01      0.1168548802E+00
          0                 3           2             4    7     1      -0.1154060089E-01       4    8    1        -0.6198545684E+00      0.1524947796E+01
          0                 4           2             4    7     1       0.1201624474E-01       4    8    1         0.6633863527E+00      0.1624971205E+01
          0                 5           2             4    7     1      -0.4781658641E-03       4    8    1        -0.2713508746E-01      0.6646562977E-01
          0                 6           1             4    7     1       0.5900365787E-05       4    8    1         0.3441480301E-03      0.8429482192E-03

    ------------------------------------------------
       NWT REQUIRED            6 OUTER ITERATIONS 
       AND A TOTAL OF         11 INNER ITERATIONS.
    ------------------------------------------------

 NO OUTPUT CONTROL FOR STRESS PERIOD    5   TIME STEP   30



 STREAM LISTING     PERIOD      5   STEP       30

 LAYER ROW COL. STREAM  RCH.  FLOW INTO     FLOW TO   FLOW OUT OF   OVRLND.     DIRECT     STREAM       STREAM     STREAM     STREAM   STREAMBED  STREAMBED
                SEG.NO.  NO.  STRM. RCH.    AQUIFER    STRM. RCH.    RUNOFF     PRECIP       ET          HEAD       DEPTH      WIDTH   CONDCTNC.   GRADIENT

   1    1    1     1     1    3.7125E+01  2.9395E-01   3.6831E+01  0.000E+00  0.000E+00  0.000E+00  1.09436E+03  1.309E+00  1.516E+01  6.821E-02  1.436E+00
   1    2    2     1     2    3.6831E+01  4.5518E-01   3.6376E+01  0.000E+00  0.000E+00  0.000E+00  1.08936E+03  1.306E+00  1.510E+01  1.057E-01  1.435E+00
   1    3    3     1     3    3.6376E+01  3.8814E-01   3.5988E+01  0.000E+00  0.000E+00  0.000E+00  1.08372E+03  1.303E+00  1.503E+01  9.020E-02  1.434E+00
   1    3    4     1     4    3.5988E+01  3.5737E-01   3.5631E+01  0.000E+00  0.000E+00  0.000E+00  1.07871E+03  1.300E+00  1.497E+01  8.311E-02  1.433E+00
   1    4    5     2     1    3.3631E+01  3.4618E-01   3.3284E+01  0.000E+00  0.000E+00  0.000E+00  1.07337E+03  1.438E+00  1.200E+01  7.800E-02  1.479E+00
   1    5    6     2     2    3.3284E+01  2.6582E-01   3.3019E+01  0.000E+00  0.000E+00  0.000E+00  1.06794E+03  1.430E+00  1.200E+01  6.000E-02  1.477E+00
   1    6    6     2     3    3.3019E+01  2.6541E-01   3.2753E+01  0.000E+00  0.000E+00  0.000E+00  1.06322E+03  1.423E+00  1.200E+01  6.000E-02  1.474E+00
   1    7    6     2     4    3.2753E+01  2.6499E-01   3.2488E+01  0.000E+00  0.000E+00  0.000E+00  1.05849E+03  1.417E+00  1.200E+01  6.000E-02  1.472E+00
   1    8    6     2     5    3.2488E+01  2.6458E-01   3.2224E+01  0.000E+00  0.000E+00  0.000E+00  1.05377E+03  1.410E+00  1.200E+01  6.000E-02  1.470E+00
   1    3    5     3     1    2.0000E+00  2.8252E-01   1.7175E+00  0.000E+00  0.000E+00  0.000E+00  1.07555E+03  1.909E+00  9.636E+00  7.227E-02  1.955E+00
   1    3    6     3     2    1.7175E+00  2.4905E-01   1.4684E+00  0.000E+00  0.000E+00  0.000E+00  1.07264E+03  1.727E+00  8.909E+00  6.682E-02  1.864E+00
   1    3    7     3     3    1.4684E+00  1.9718E-01   1.2712E+00  0.000E+00  0.000E+00  0.000E+00  1.06987E+03  1.555E+00  8.218E+00  5.547E-02  1.777E+00
   1    4    8     3     4    1.2712E+00  2.2567E-01   1.0456E+00  0.000E+00  0.000E+00  0.000E+00  1.06682E+03  1.364E+00  7.455E+00  6.709E-02  1.682E+00
   1    5    8     3     5    1.0456E+00  1.5790E-01   8.8768E-01  0.000E+00  0.000E+00  0.000E+00  1.06362E+03  1.164E+00  6.655E+00  4.991E-02  1.582E+00
   1    6    8     3     6    8.8768E-01  5.5980E-02   8.3170E-01  0.000E+00  0.000E+00  0.000E+00  1.06158E+03  1.036E+00  6.145E+00  1.844E-02  1.518E+00
   1    5   10     4     1    1.0000E+01  9.0919E-02   9.9091E+00  0.000E+00  0.000E+00  0.000E+00  1.07836E+03  6.368E-01  1.000E+01  2.500E-02  1.212E+00
   1    5    9     4     2    9.9091E+00  1.8158E-01   9.7275E+00  0.000E+00  0.000E+00  0.000E+00  1.07154E+03  6.315E-01  1.000E+01  5.000E-02  1.211E+00
   1    6    8     4     3    9.7275E+00  1.2689E-01   9.6006E+00  0.000E+00  0.000E+00  0.000E+00  1.06381E+03  6.256E-01  1.000E+01  3.500E-02  1.209E+00
   1    6    8     5     1    1.0432E+01  2.2686E-01   1.0205E+01  0.000E+00  0.000E+00  0.000E+00  1.05868E+03  6.790E-01  1.542E+01  6.166E-02  1.226E+00
   1    7    7     5     2    1.0205E+01  2.7894E-01   9.9265E+00  0.000E+00  0.000E+00  0.000E+00  1.05417E+03  6.732E-01  1.519E+01  7.594E-02  1.224E+00
   1    8    7     5     3    9.9265E+00  1.9221E-01   9.7343E+00  0.000E+00  0.000E+00  0.000E+00  1.04992E+03  6.676E-01  1.497E+01  5.241E-02  1.223E+00
   1    8    6     5     4    9.7343E+00  1.3577E-01   9.5985E+00  0.000E+00  0.000E+00  0.000E+00  1.04691E+03  6.637E-01  1.482E+01  3.706E-02  1.221E+00
   1    9    6     6     1    3.8102E+01  2.7414E-01   3.7828E+01  0.000E+00  0.000E+00  0.000E+00  1.04430E+03  1.569E+00  1.200E+01  6.000E-02  1.523E+00
   1   10    7     6     2    3.7828E+01  2.7373E-01   3.7554E+01  0.000E+00  0.000E+00  0.000E+00  1.03974E+03  1.562E+00  1.200E+01  6.000E-02  1.521E+00
   1   11    7     6     3    3.7554E+01  2.7332E-01   3.7281E+01  0.000E+00  0.000E+00  0.000E+00  1.03519E+03  1.555E+00  1.200E+01  6.000E-02  1.518E+00
   1   12    7     6     4    3.7281E+01  2.7291E-01   3.7008E+01  0.000E+00  0.000E+00  0.000E+00  1.03064E+03  1.548E+00  1.200E+01  6.000E-02  1.516E+00
   1   13    7     6     5    3.7008E+01  1.4539E-02   3.6993E+01  0.000E+00  0.000E+00  0.000E+00  1.02745E+03  1.545E+00  1.200E+01  2.400E-02  2.019E-01
   1   14    9     7     1    1.5000E+02  1.3674E+00   1.4863E+02  0.000E+00  0.000E+00  0.000E+00  1.03987E+03  2.288E+00  5.529E+01  5.593E-01  8.150E-01
   1   13    8     7     2    1.4863E+02  1.9166E+00   1.4672E+02  0.000E+00  0.000E+00  0.000E+00  1.03478E+03  2.279E+00  5.526E+01  6.148E-01  1.039E+00
   1   13    7     7     3    1.4672E+02  1.5863E+00   1.4513E+02  0.000E+00  0.000E+00  0.000E+00  1.02969E+03  2.270E+00  5.521E+01  5.584E-01  9.469E-01
   1   13    6     8     1    1.8212E+02  1.0801E+00   1.8104E+02  0.000E+00  0.000E+00  0.000E+00  1.02490E+03  3.026E+00  4.388E+01  4.471E-01  8.052E-01
   1   13    5     8     2    1.8104E+02  2.9312E-01   1.8075E+02  0.000E+00  0.000E+00  0.000E+00  1.01865E+03  3.022E+00  4.382E+01  4.465E-01  2.188E-01
   1   13    4     8     3    1.8075E+02 -1.7878E+00   1.8254E+02  0.000E+00  0.000E+00  0.000E+00  1.01240E+03  3.026E+00  4.388E+01  4.472E+00 -1.333E-01
   1   13    3     8     4    1.8254E+02 -3.1361E+00   1.8567E+02  0.000E+00  0.000E+00  0.000E+00  1.00617E+03  3.042E+00  4.411E+01  4.495E+00 -2.326E-01
   1   13    2     8     5    1.8567E+02 -2.0932E+00   1.8777E+02  0.000E+00  0.000E+00  0.000E+00  9.99933E+02  3.058E+00  4.434E+01  4.518E+00 -1.544E-01
   1   13    1     8     6    1.8777E+02 -1.7345E+00   1.8950E+02  0.000E+00  0.000E+00  0.000E+00  9.94945E+02  3.070E+00  4.451E+01  2.721E+00 -2.125E-01
   1    8    6     9     1    3.7200E+00  0.0000E+00   3.7200E+00  0.000E+00  0.000E+00  0.000E+00  1.08000E+03  1.252E+00  4.000E+00  0.000E+00  1.417E+00
   1    8    5     9     2    3.7200E+00  0.0000E+00   3.7200E+00  0.000E+00  0.000E+00  0.000E+00  1.07950E+03  1.252E+00  4.000E+00  0.000E+00  1.417E+00





UNSATURATED ZONE PACKAGE VOLUMETRIC BUDGET FOR  TIME STEP    30 STRESS PERIOD    5
  ------------------------------------------------------------------------------



     CUMULATIVE VOLUMES      L**3       RATES FOR THIS TIME STEP      L**3/T
     ------------------                 ------------------------

           IN:                                      IN:
           ---                                      ---
        INFILTRATION =    18775342.7483          INFILTRATION =           4.5676

          OUT:                                     OUT:
          ----                                     ----
              UZF ET =    18618039.4902                UZF ET =           4.5675
        UZF RECHARGE =       73224.0000          UZF RECHARGE =       0.0000E+00

            IN - OUT =       84079.2581              IN - OUT =       7.4387E-05

          STORAGE:                                 STORAGE:
          --------                                 --------
      STORAGE CHANGE =       84078.6005        STORAGE CHANGE =       7.4424E-05

 PERCENT DISCREPANCY IS DIFFERENCE BETWEEN IN-OUT MINUS CHANGE IN STORAGE
 DIVIDED BY THE AVERAGE OF IN AND OUT TIMES 100

 PERCENT DISCREPANCY =           0.00     PERCENT DISCREPANCY =           0.00






1
  VOLUMETRIC BUDGET FOR AGRICULTURAL FIELDS AT  END OF TIME STEP   30, STRESS PERIOD   5
  ------------------------------------------------------------------------------

     CUMULATIVE VOLUMES      L**3       RATES FOR THIS TIME STEP      L**3/T
     ------------------                 ------------------------

           IN:                                      IN:
           ---                                      ---
           AG WELLS      =       76629.8672             AG WELLS      =           0.0000
      DIVERSION SEGMENTS =     9709596.0000        DIVERSION SEGMENTS =           3.7200
           GW IRRIGATION =           0.0000             GW IRRIGATION =           0.0000
           SW IRRIGATION =           0.0000             SW IRRIGATION =           0.0000
        SYSTEM LOSSES GW =           0.0000          SYSTEM LOSSES GW =           0.0000
        SYSTEM LOSSES SW =           0.0000          SYSTEM LOSSES SW =           0.0000

                TOTAL IN =     9786226.0000                  TOTAL IN =           3.7200

          OUT:                                     OUT:
          ----                                     ----
           AG WELLS      =           0.0000             AG WELLS      =           0.0000
      DIVERSION SEGMENTS =           0.0000        DIVERSION SEGMENTS =           0.0000
           GW IRRIGATION =       76629.8672             GW IRRIGATION =           0.0000
           SW IRRIGATION =     9709788.0000             SW IRRIGATION =           3.7201
        SYSTEM LOSSES GW =           0.0000          SYSTEM LOSSES GW =           0.0000
        SYSTEM LOSSES SW =           0.0000          SYSTEM LOSSES SW =           0.0000

               TOTAL OUT =     9786418.0000                 TOTAL OUT =           3.7201

                IN - OUT =        -192.0000                  IN - OUT =      -7.4387E-05

     PERCENT DISCREPANCY =          -0.00         PERCENT DISCREPANCY =          -0.00



1
  VOLUMETRIC BUDGET FOR ENTIRE MODEL AT END OF TIME STEP   30, STRESS PERIOD   5
  ------------------------------------------------------------------------------

     CUMULATIVE VOLUMES      L**3       RATES FOR THIS TIME STEP      L**3/T
     ------------------                 ------------------------

           IN:                                      IN:
           ---                                      ---
             STORAGE     =     7195524.5000               STORAGE     =           0.4147
       CONSTANT HEAD     =           0.0000         CONSTANT HEAD     =           0.0000
     HEAD DEP BOUNDS     =     3052947.5000       HEAD DEP BOUNDS     =           0.2879
      STREAM LEAKAGE     =   123163664.0000        STREAM LEAKAGE     =          12.6552
        UZF RECHARGE     =       73223.9531          UZF RECHARGE     =           0.0000
               GW ET     =           0.0000                 GW ET     =           0.0000
     SURFACE LEAKAGE     =           0.0000       SURFACE LEAKAGE     =           0.0000
           AG WELLS      =           0.0000             AG WELLS      =           0.0000

                TOTAL IN =   133485360.0000                  TOTAL IN =          13.3578

          OUT:                                     OUT:
          ----                                     ----
             STORAGE     =    21510866.0000               STORAGE     =           4.3180
       CONSTANT HEAD     =           0.0000         CONSTANT HEAD     =           0.0000
     HEAD DEP BOUNDS     =     3057160.5000       HEAD DEP BOUNDS     =           0.2881
      STREAM LEAKAGE     =   108844400.0000        STREAM LEAKAGE     =           8.7516
        UZF RECHARGE     =           0.0000          UZF RECHARGE     =           0.0000
               GW ET     =           0.0000                 GW ET     =           0.0000
     SURFACE LEAKAGE     =           0.0000       SURFACE LEAKAGE     =           0.0000
           AG WELLS      =       76629.8672             AG WELLS      =           0.0000

               TOTAL OUT =   133489056.0000                 TOTAL OUT =          13.3577

                IN - OUT =       -3696.0000                  IN - OUT =       3.4332E-05

     PERCENT DISCREPANCY =          -0.00         PERCENT DISCREPANCY =           0.00






         TIME SUMMARY AT END OF TIME STEP   30 IN STRESS PERIOD    5
                    SECONDS     MINUTES      HOURS       DAYS        YEARS
                    -----------------------------------------------------------
   TIME STEP LENGTH  87667.      1461.1      24.352      1.0147     2.77799E-03
 STRESS PERIOD TIME 2.63000E+06  43833.      730.56      30.440     8.33397E-02
         TOTAL TIME 1.06064E+07 1.76773E+05  2946.2      122.76     0.33610    
1
1
                            STRESS PERIOD NO.    6, LENGTH =   2630000.    
                            -----------------------------------------------

                              NUMBER OF TIME STEPS =    30

                               MULTIPLIER FOR DELT =     1.000

                            INITIAL TIME STEP SIZE =   87666.66    

 REUSING NON-PARAMETER GHB CELLS FROM LAST STRESS PERIOD

      2 GHB CELLS

 REUSING STREAM SEGMENT DATA FROM LAST STRESS PERIOD



            AREAL INFILTRATION RATE
 READING ON UNIT   19 WITH FORMAT: (FREE)              

            1           2           3           4           5           6           7           8           9          10
 ........................................................................................................................
   1   1.0000E-10  2.0000E-10   0.000       0.000       0.000       0.000       0.000       0.000       0.000       0.000    
   2   2.0000E-10  1.0000E-10  2.0000E-10   0.000       0.000      8.0000E-10  8.0000E-10  5.0000E-10   0.000       0.000    
   3    0.000      5.0000E-10  1.0000E-10  1.0000E-10  8.0000E-10  8.0000E-10  5.0000E-10  5.0000E-10   0.000       0.000    
   4   8.0000E-10  5.0000E-10  1.0000E-10  1.0000E-10  1.0000E-10  1.0000E-10  1.0000E-10  1.0000E-10  2.0000E-10   0.000    
   5   8.0000E-10  5.0000E-10  1.0000E-10  1.0000E-10  1.0000E-10  1.0000E-10  1.0000E-10  1.0000E-10  1.0000E-10  1.0000E-10
   6   8.0000E-10  5.0000E-10  5.0000E-10  2.0000E-10  2.0000E-10  1.0000E-10  1.0000E-10  1.0000E-10  1.0000E-10  5.0000E-10
   7   8.0000E-10  5.0000E-10  5.0000E-10  2.0000E-10  2.0000E-10  1.0000E-10  1.0000E-10  2.0000E-10  2.0000E-10   0.000    
   8    0.000      5.0000E-10  5.0000E-10  2.0000E-10  2.0000E-10  1.0000E-10  1.0000E-10  2.0000E-10  5.0000E-10   0.000    
   9    0.000      5.0000E-10  5.0000E-10  2.0000E-10  2.0000E-10  1.0000E-10  1.0000E-10  2.0000E-10  5.0000E-10   0.000    
  10    0.000      5.0000E-10  5.0000E-10  2.0000E-10  2.0000E-10  1.0000E-10  1.0000E-10  2.0000E-10  5.0000E-10  8.0000E-10
  11    0.000      1.0000E-10  1.0000E-10  1.0000E-10  1.0000E-10  1.0000E-10  1.0000E-10  2.0000E-10  5.0000E-10   0.000    
  12   1.0000E-10  1.0000E-10  1.0000E-10  1.0000E-10  1.0000E-10  1.0000E-10  1.0000E-10  1.0000E-10  2.0000E-10   0.000    
  13   1.0000E-10  1.0000E-10  2.0000E-10  2.0000E-10  2.0000E-10  2.0000E-10  2.0000E-10  1.0000E-10  1.0000E-10   0.000    
  14    0.000      2.0000E-10  5.0000E-10  5.0000E-10  5.0000E-10  5.0000E-10  5.0000E-10  2.0000E-10  1.0000E-10   0.000    
  15    0.000       0.000      8.0000E-10  8.0000E-10  8.0000E-10  8.0000E-10   0.000       0.000       0.000       0.000    

                  ET RATE =  5.000000E-08

 USING ET EXTINCTION DEPTH FROM PREVIOUS STRESS PERIOD. CURRENT PERIOD IS:       6

 USING EXTINCTION WATER CONTENT FROM PREVIOUS STRESS PERIOD. CURRENT PERIOD IS:       6

 USING AIR ENTRY PRESSURE FROM PREVIOUS STRESS PERIOD. CURRENT PERIOD IS:       6

 USING ROOT PRESSURE HEAD FROM PREVIOUS STRESS PERIOD. CURRENT PERIOD IS:       6

 USING ROOT ACTIVITY FROM PREVIOUS STRESS PERIOD. CURRENT PERIOD IS:       6

 PROCESSING AG STRESS PERIOD DATA

 READING AG STRESS PERIOD DATA

 READING IRRIGATION SEGMENT

 READING IRRIGATION WELL

 READING SUPPLEMENTAL WELL

 END PROCESSING AG STRESS PERIOD DATA OPTIONS
 
 SOLVING FOR HEAD 
                                                   Max.-Head-Change                         Max.-Flux-Residual
  Residual-Control   Outer-Iter.   Inner-Iter.     Column Row Layer    Maximum-Head-Change  Column Row Layer    Maximum-Flux-Residual          L2-NORM 
          0                 1           2             4   13     1       0.7103423221E-02       4   13    1         0.4078164395E+00      0.8746433977E+00
          0                 2           2             4    7     1      -0.1168391069E-01       5    6    1        -0.6291809100E+00      0.1554300749E+01
          0                 3           2             4    7     1       0.1211018069E-01       5    6    1         0.6686918642E+00      0.1637807025E+01
          0                 4           2             4    7     1      -0.4818778485E-03       5    6    1        -0.2734957711E-01      0.6698627552E-01
          0                 5           1             4    7     1       0.5941758862E-05       5    6    1         0.3466033843E-03      0.8489200359E-03

    ------------------------------------------------
       NWT REQUIRED            5 OUTER ITERATIONS 
       AND A TOTAL OF          9 INNER ITERATIONS.
    ------------------------------------------------

 NO OUTPUT CONTROL FOR STRESS PERIOD    6   TIME STEP    1
 
 SOLVING FOR HEAD 
                                                   Max.-Head-Change                         Max.-Flux-Residual
  Residual-Control   Outer-Iter.   Inner-Iter.     Column Row Layer    Maximum-Head-Change  Column Row Layer    Maximum-Flux-Residual          L2-NORM 
          0                 1           2             4   13     1       0.9646495886E-02       4   13    1         0.5541325170E+00      0.1091762908E+01
          0                 2           2             4   13     1      -0.9285640926E-03       4   13    1        -0.5484388459E-01      0.1067537979E+00
          0                 3           2             4    7     1      -0.2295161038E-01       4    8    1        -0.1232690848E+01      0.3033359513E+01
          0                 4           2             4    7     1       0.2389430119E-01       4    8    1         0.1319132134E+01      0.3231137385E+01
          0                 5           2             4    7     1      -0.9511261039E-03       4    6    1        -0.5447128652E-01      0.1323997476E+00
          0                 6           1             4    7     1       0.1173648890E-04       4    6    1         0.6908962653E-03      0.1679229704E-02

    ------------------------------------------------
       NWT REQUIRED            6 OUTER ITERATIONS 
       AND A TOTAL OF         11 INNER ITERATIONS.
    ------------------------------------------------

 NO OUTPUT CONTROL FOR STRESS PERIOD    6   TIME STEP    2
 
 SOLVING FOR HEAD 
                                                   Max.-Head-Change                         Max.-Flux-Residual
  Residual-Control   Outer-Iter.   Inner-Iter.     Column Row Layer    Maximum-Head-Change  Column Row Layer    Maximum-Flux-Residual          L2-NORM 
          0                 1           2             4   13     1       0.9019842930E-02       4   13    1         0.5179359582E+00      0.1046227479E+01
          0                 2           2             4   13     1      -0.8682180834E-03       4   13    1        -0.5125975797E-01      0.1023638254E+00
          0                 3           2             4    7     1      -0.2298966902E-01       4    8    1        -0.1234734926E+01      0.3038366082E+01
          0                 4           2             4    7     1       0.2393392728E-01       4    8    1         0.1321319557E+01      0.3236501813E+01
          0                 5           2             4    7     1      -0.9527073796E-03       4    6    1        -0.5457892044E-01      0.1326264748E+00
          0                 6           1             4    7     1       0.1175600162E-04       4    6    1         0.6922661235E-03      0.1682102488E-02

    ------------------------------------------------
       NWT REQUIRED            6 OUTER ITERATIONS 
       AND A TOTAL OF         11 INNER ITERATIONS.
    ------------------------------------------------

 NO OUTPUT CONTROL FOR STRESS PERIOD    6   TIME STEP    3
 
 SOLVING FOR HEAD 
                                                   Max.-Head-Change                         Max.-Flux-Residual
  Residual-Control   Outer-Iter.   Inner-Iter.     Column Row Layer    Maximum-Head-Change  Column Row Layer    Maximum-Flux-Residual          L2-NORM 
          0                 1           2             4   13     1       0.8455752704E-02       4   13    1         0.4853634765E+00      0.1005095326E+01
          0                 2           2             4   13     1      -0.8138752556E-03       4   13    1        -0.4803322783E-01      0.9839950067E-01
          0                 3           2             4    7     1      -0.2299776127E-01       4    8    1        -0.1235169670E+01      0.3039413608E+01
          0                 4           2             4    7     1       0.2394236174E-01       4    8    1         0.1321784988E+01      0.3237648528E+01
          0                 5           2             4    7     1      -0.9530471609E-03       4    6    1        -0.5461597225E-01      0.1326805969E+00
          0                 6           1             4    7     1       0.1176019393E-04       4    6    1         0.6927409111E-03      0.1682802542E-02

    ------------------------------------------------
       NWT REQUIRED            6 OUTER ITERATIONS 
       AND A TOTAL OF         11 INNER ITERATIONS.
    ------------------------------------------------

 NO OUTPUT CONTROL FOR STRESS PERIOD    6   TIME STEP    4
 
 SOLVING FOR HEAD 
                                                   Max.-Head-Change                         Max.-Flux-Residual
  Residual-Control   Outer-Iter.   Inner-Iter.     Column Row Layer    Maximum-Head-Change  Column Row Layer    Maximum-Flux-Residual          L2-NORM 
          0                 1           2             4   13     1       0.7947358125E-02       4   13    1         0.4560165407E+00      0.9679007710E+00
          0                 2           2             4   13     1      -0.7649161046E-03       4   13    1        -0.4512728815E-01      0.9481737959E-01
          0                 3           2             4    7     1      -0.2300522027E-01       4    8    1        -0.1235570342E+01      0.3040379192E+01
          0                 4           2             4    7     1       0.2395013763E-01       4    8    1         0.1322214058E+01      0.3238706168E+01
          0                 5           2             4    7     1      -0.9533606982E-03       4    6    1        -0.5465139359E-01      0.1327310106E+00
          0                 6           1             4    7     1       0.1176406273E-04       4    6    1         0.6931949799E-03      0.1683447901E-02

    ------------------------------------------------
       NWT REQUIRED            6 OUTER ITERATIONS 
       AND A TOTAL OF         11 INNER ITERATIONS.
    ------------------------------------------------

 NO OUTPUT CONTROL FOR STRESS PERIOD    6   TIME STEP    5
 
 SOLVING FOR HEAD 
                                                   Max.-Head-Change                         Max.-Flux-Residual
  Residual-Control   Outer-Iter.   Inner-Iter.     Column Row Layer    Maximum-Head-Change  Column Row Layer    Maximum-Flux-Residual          L2-NORM 
          0                 1           2             4   13     1       0.7488995698E-02       4   13    1         0.4295664595E+00      0.9342364656E+00
          0                 2           2             4   13     1      -0.7207622753E-03       4   13    1        -0.4250741950E-01      0.9157693358E-01
          0                 3           2             4    7     1      -0.2301211705E-01       4    8    1        -0.1235940810E+01      0.3041271918E+01
          0                 4           2             4    7     1       0.2395732891E-01       4    8    1         0.1322610854E+01      0.3239684740E+01
          0                 5           2             4    7     1      -0.9536509424E-03       4    6    1        -0.5468538283E-01      0.1327781537E+00
          0                 6           1             4    7     1       0.1176764410E-04       4    6    1         0.6936308521E-03      0.1684053801E-02

    ------------------------------------------------
       NWT REQUIRED            6 OUTER ITERATIONS 
       AND A TOTAL OF         11 INNER ITERATIONS.
    ------------------------------------------------

 NO OUTPUT CONTROL FOR STRESS PERIOD    6   TIME STEP    6
 
 SOLVING FOR HEAD 
                                                   Max.-Head-Change                         Max.-Flux-Residual
  Residual-Control   Outer-Iter.   Inner-Iter.     Column Row Layer    Maximum-Head-Change  Column Row Layer    Maximum-Flux-Residual          L2-NORM 
          0                 1           2             2   13     1       0.7134212853E-02       4   13    1         0.4057260018E+00      0.9037585337E+00
          0                 2           2             4   13     1      -0.6809496079E-03       4   13    1        -0.4014594180E-01      0.8864365847E-01
          0                 3           2             4    7     1      -0.2301851162E-01       4    8    1        -0.1236284296E+01      0.3042099766E+01
          0                 4           2             4    7     1       0.2396399795E-01       4    8    1         0.1322978820E+01      0.3240592671E+01
          0                 5           2             4    7     1      -0.9539203755E-03       4    6    1        -0.5471807958E-01      0.1328223539E+00
          0                 6           1             4    7     1       0.1177096918E-04       4    6    1         0.6940502876E-03      0.1684617333E-02

    ------------------------------------------------
       NWT REQUIRED            6 OUTER ITERATIONS 
       AND A TOTAL OF         11 INNER ITERATIONS.
    ------------------------------------------------

 NO OUTPUT CONTROL FOR STRESS PERIOD    6   TIME STEP    7
 
 SOLVING FOR HEAD 
                                                   Max.-Head-Change                         Max.-Flux-Residual
  Residual-Control   Outer-Iter.   Inner-Iter.     Column Row Layer    Maximum-Head-Change  Column Row Layer    Maximum-Flux-Residual          L2-NORM 
          0                 1           2             2   13     1       0.6812589795E-02       4   13    1         0.3842285877E+00      0.8761377890E+00
          0                 2           2             4   13     1      -0.6450651636E-03       4   13    1        -0.3801823221E-01      0.8598802284E-01
          0                 3           2             4    7     1      -0.2302445326E-01       4    8    1        -0.1236603546E+01      0.3042869161E+01
          0                 4           2             4    7     1       0.2397019780E-01       4    8    1         0.1323320889E+01      0.3241437160E+01
          0                 5           2             4    7     1      -0.9541711114E-03       4    6    1        -0.5474961861E-01      0.1328639476E+00
          0                 6           1             4    7     1       0.1177406306E-04       4    6    1         0.6944550064E-03      0.1685155046E-02

    ------------------------------------------------
       NWT REQUIRED            6 OUTER ITERATIONS 
       AND A TOTAL OF         11 INNER ITERATIONS.
    ------------------------------------------------

 NO OUTPUT CONTROL FOR STRESS PERIOD    6   TIME STEP    8
 
 SOLVING FOR HEAD 
                                                   Max.-Head-Change                         Max.-Flux-Residual
  Residual-Control   Outer-Iter.   Inner-Iter.     Column Row Layer    Maximum-Head-Change  Column Row Layer    Maximum-Flux-Residual          L2-NORM 
          0                 1           2             2   13     1       0.6515189614E-02       2   13    1         0.3670739617E+00      0.8510767634E+00
          0                 2           2             4   13     1      -0.6126394840E-03       4   13    1        -0.3609628072E-01      0.8357751528E-01
          0                 3           2             4    7     1      -0.2302999683E-01       4    8    1        -0.1236901304E+01      0.3043587090E+01
          0                 4           2             4    7     1       0.2397598182E-01       4    8    1         0.1323639996E+01      0.3242225489E+01
          0                 5           2             4    7     1      -0.9544052712E-03       4    6    1        -0.5478010251E-01      0.1329033040E+00
          0                 6           1             4    7     1       0.1177695262E-04       4    6    1         0.6948463401E-03      0.1685663540E-02

    ------------------------------------------------
       NWT REQUIRED            6 OUTER ITERATIONS 
       AND A TOTAL OF         11 INNER ITERATIONS.
    ------------------------------------------------

 NO OUTPUT CONTROL FOR STRESS PERIOD    6   TIME STEP    9
 
 SOLVING FOR HEAD 
                                                   Max.-Head-Change                         Max.-Flux-Residual
  Residual-Control   Outer-Iter.   Inner-Iter.     Column Row Layer    Maximum-Head-Change  Column Row Layer    Maximum-Flux-Residual          L2-NORM 
          0                 1           2             2   13     1       0.6240224020E-02       2   13    1         0.3515621611E+00      0.8283193299E+00
          0                 2           2             4   13     1      -0.5833799613E-03       4   13    1        -0.3436261460E-01      0.8139032101E-01
          0                 3           2             4    7     1      -0.2303517815E-01       4    8    1        -0.1237179648E+01      0.3044258266E+01
          0                 4           2             4    7     1       0.2398138919E-01       4    8    1         0.1323938313E+01      0.3242962645E+01
          0                 5           2             4    7     1      -0.9546244200E-03       4    6    1        -0.5480964984E-01      0.1329402985E+00
          0                 6           1             4    7     1       0.1177965668E-04       4    6    1         0.6952257677E-03      0.1686142951E-02

    ------------------------------------------------
       NWT REQUIRED            6 OUTER ITERATIONS 
       AND A TOTAL OF         11 INNER ITERATIONS.
    ------------------------------------------------

 NO OUTPUT CONTROL FOR STRESS PERIOD    6   TIME STEP   10
 
 SOLVING FOR HEAD 
                                                   Max.-Head-Change                         Max.-Flux-Residual
  Residual-Control   Outer-Iter.   Inner-Iter.     Column Row Layer    Maximum-Head-Change  Column Row Layer    Maximum-Flux-Residual          L2-NORM 
          0                 1           2             2   13     1       0.5986004287E-02       2   13    1         0.3372216134E+00      0.8076324669E+00
          0                 2           2             4   13     1      -0.5569692622E-03       4   13    1        -0.3279836307E-01      0.7940365346E-01
          0                 3           2             4    7     1      -0.2304002838E-01       4    8    1        -0.1237440155E+01      0.3044886679E+01
          0                 4           2             4    7     1       0.2398645225E-01       4    8    1         0.1324217619E+01      0.3243653348E+01
          0                 5           2             4    7     1      -0.9548298411E-03       4    6    1        -0.5483831541E-01      0.1329754719E+00
          0                 6           1             4    7     1       0.1178219160E-04       4    6    1         0.6955939859E-03      0.1686594404E-02

    ------------------------------------------------
       NWT REQUIRED            6 OUTER ITERATIONS 
       AND A TOTAL OF         11 INNER ITERATIONS.
    ------------------------------------------------

 NO OUTPUT CONTROL FOR STRESS PERIOD    6   TIME STEP   11
 
 SOLVING FOR HEAD 
                                                   Max.-Head-Change                         Max.-Flux-Residual
  Residual-Control   Outer-Iter.   Inner-Iter.     Column Row Layer    Maximum-Head-Change  Column Row Layer    Maximum-Flux-Residual          L2-NORM 
          0                 1           2             2   13     1       0.5750932386E-02       2   13    1         0.3239620135E+00      0.7888016071E+00
          0                 2           2             2   13     1      -0.5347464327E-03       4   13    1        -0.3138449223E-01      0.7759304372E-01
          0                 3           2             4    7     1      -0.2304458307E-01       4    8    1        -0.1237684786E+01      0.3045477176E+01
          0                 4           2             4    7     1       0.2399120797E-01       4    8    1         0.1324479959E+01      0.3244302470E+01
          0                 5           2             4    7     1      -0.9550230136E-03       4    6    1        -0.5486621177E-01      0.1330089245E+00
          0                 6           1             4    7     1       0.1178457530E-04       4    6    1         0.6959524269E-03      0.1687029473E-02

    ------------------------------------------------
       NWT REQUIRED            6 OUTER ITERATIONS 
       AND A TOTAL OF         11 INNER ITERATIONS.
    ------------------------------------------------

 NO OUTPUT CONTROL FOR STRESS PERIOD    6   TIME STEP   12
 
 SOLVING FOR HEAD 
                                                   Max.-Head-Change                         Max.-Flux-Residual
  Residual-Control   Outer-Iter.   Inner-Iter.     Column Row Layer    Maximum-Head-Change  Column Row Layer    Maximum-Flux-Residual          L2-NORM 
          0                 1           2             2   13     1       0.5533533741E-02       2   13    1         0.3117000989E+00      0.7716427226E+00
          0                 2           2             2   13     1      -0.5145602320E-03       4   13    1        -0.3010830434E-01      0.7594499109E-01
          0                 3           2             4    7     1      -0.2304886445E-01       4    8    1        -0.1237914733E+01      0.3046032281E+01
          0                 4           2             4    7     1       0.2399567947E-01       4    8    1         0.1324726608E+01      0.3244913152E+01
          0                 5           2             4    7     1      -0.9552048550E-03       4    6    1        -0.5489338757E-01      0.1330407746E+00
          0                 6           1             4    7     1       0.1178681898E-04       4    6    1         0.6963017197E-03      0.1687443755E-02

    ------------------------------------------------
       NWT REQUIRED            6 OUTER ITERATIONS 
       AND A TOTAL OF         11 INNER ITERATIONS.
    ------------------------------------------------

 NO OUTPUT CONTROL FOR STRESS PERIOD    6   TIME STEP   13
 
 SOLVING FOR HEAD 
                                                   Max.-Head-Change                         Max.-Flux-Residual
  Residual-Control   Outer-Iter.   Inner-Iter.     Column Row Layer    Maximum-Head-Change  Column Row Layer    Maximum-Flux-Residual          L2-NORM 
          0                 1           2             2   13     1       0.5332612699E-02       2   13    1         0.3003683908E+00      0.7559838502E+00
          0                 2           2             2   13     1      -0.4959274995E-03       4   13    1        -0.2895529925E-01      0.7444169023E-01
          0                 3           2             4    7     1      -0.2305289916E-01       4    8    1        -0.1238131432E+01      0.3046555679E+01
          0                 4           2             4    7     1       0.2399989447E-01       4    8    1         0.1324959097E+01      0.3245489136E+01
          0                 5           2             4    7     1      -0.9553764697E-03       4    6    1        -0.5491990252E-01      0.1330711761E+00
          0                 6           1             4    7     1       0.1178893697E-04       4    6    1         0.6966425954E-03      0.1687838195E-02

    ------------------------------------------------
       NWT REQUIRED            6 OUTER ITERATIONS 
       AND A TOTAL OF         11 INNER ITERATIONS.
    ------------------------------------------------

 NO OUTPUT CONTROL FOR STRESS PERIOD    6   TIME STEP   14
 
 SOLVING FOR HEAD 
                                                   Max.-Head-Change                         Max.-Flux-Residual
  Residual-Control   Outer-Iter.   Inner-Iter.     Column Row Layer    Maximum-Head-Change  Column Row Layer    Maximum-Flux-Residual          L2-NORM 
          0                 1           2             2   13     1       0.5146731607E-02       2   13    1         0.2898856631E+00      0.7416762303E+00
          0                 2           2             2   13     1      -0.4786323837E-03       4   13    1        -0.2791115233E-01      0.7306637515E-01
          0                 3           2             4    7     1      -0.2305670542E-01       4    8    1        -0.1238335955E+01      0.3047049824E+01
          0                 4           2             4    7     1       0.2400387365E-01       4    8    1         0.1325178574E+01      0.3246033224E+01
          0                 5           2             4    7     1      -0.9555386825E-03       4    6    1        -0.5494581553E-01      0.1331002514E+00
          0                 6           1             4    7     1       0.1179093847E-04       4    6    1         0.6969758322E-03      0.1688218032E-02

    ------------------------------------------------
       NWT REQUIRED            6 OUTER ITERATIONS 
       AND A TOTAL OF         11 INNER ITERATIONS.
    ------------------------------------------------

 NO OUTPUT CONTROL FOR STRESS PERIOD    6   TIME STEP   15
 
 SOLVING FOR HEAD 
                                                   Max.-Head-Change                         Max.-Flux-Residual
  Residual-Control   Outer-Iter.   Inner-Iter.     Column Row Layer    Maximum-Head-Change  Column Row Layer    Maximum-Flux-Residual          L2-NORM 
          0                 1           2             2   13     1       0.4974906217E-02       2   13    1         0.2801963346E+00      0.7285799125E+00
          0                 2           2             2   13     1      -0.4626585568E-03       4   13    1        -0.2696768124E-01      0.7180850814E-01
          0                 3           2             4    7     1      -0.2306030695E-01       4    8    1        -0.1238529378E+01      0.3047517369E+01
          0                 4           2             4    7     1       0.2400763805E-01       4    8    1         0.1325386188E+01      0.3246548249E+01
          0                 5           2             4    7     1      -0.9556923303E-03       4    6    1        -0.5497117004E-01      0.1331281098E+00
          0                 6           1             4    7     1       0.1179283446E-04       4    6    1         0.6973019467E-03      0.1688579700E-02

    ------------------------------------------------
       NWT REQUIRED            6 OUTER ITERATIONS 
       AND A TOTAL OF         11 INNER ITERATIONS.
    ------------------------------------------------

 NO OUTPUT CONTROL FOR STRESS PERIOD    6   TIME STEP   16
 
 SOLVING FOR HEAD 
                                                   Max.-Head-Change                         Max.-Flux-Residual
  Residual-Control   Outer-Iter.   Inner-Iter.     Column Row Layer    Maximum-Head-Change  Column Row Layer    Maximum-Flux-Residual          L2-NORM 
          0                 1           2             2   13     1       0.4815995714E-02       2   13    1         0.2712359402E+00      0.7165800210E+00
          0                 2           2             2    2     1      -0.4519363879E-03       4   13    1        -0.2611391465E-01      0.7065576431E-01
          0                 3           2             4    7     1      -0.2306371521E-01       4    8    1        -0.1238712420E+01      0.3047960048E+01
          0                 4           2             4    7     1       0.2401120140E-01       4    8    1         0.1325582704E+01      0.3247036068E+01
          0                 5           2             4    7     1      -0.9558379586E-03       4    6    1        -0.5499599308E-01      0.1331548218E+00
          0                 6           1             4    7     1       0.1179463119E-04       4    6    1         0.6976213162E-03      0.1688929488E-02

    ------------------------------------------------
       NWT REQUIRED            6 OUTER ITERATIONS 
       AND A TOTAL OF         11 INNER ITERATIONS.
    ------------------------------------------------

 NO OUTPUT CONTROL FOR STRESS PERIOD    6   TIME STEP   17
 
 SOLVING FOR HEAD 
                                                   Max.-Head-Change                         Max.-Flux-Residual
  Residual-Control   Outer-Iter.   Inner-Iter.     Column Row Layer    Maximum-Head-Change  Column Row Layer    Maximum-Flux-Residual          L2-NORM 
          0                 1           2             2   13     1       0.4668933498E-02       2   13    1         0.2629442422E+00      0.7055630091E+00
          0                 2           2             2    2     1      -0.4496856807E-03       4   13    1        -0.2534053322E-01      0.6959458642E-01
          0                 3           2             4    7     1      -0.2306694796E-01       4    8    1        -0.1238886035E+01      0.3048380270E+01
          0                 4           2             4    7     1       0.2401439981E-01       4    8    1         0.1325769143E+01      0.3247499108E+01
          0                 5           2             4    7     1      -0.9557915926E-03       4    8    1        -0.5423987466E-01      0.1328565189E+00
          0                 6           1             4    7     1       0.1179405834E-04       4    8    1         0.6879104264E-03      0.1684945790E-02

    ------------------------------------------------
       NWT REQUIRED            6 OUTER ITERATIONS 
       AND A TOTAL OF         11 INNER ITERATIONS.
    ------------------------------------------------

 NO OUTPUT CONTROL FOR STRESS PERIOD    6   TIME STEP   18
 
 SOLVING FOR HEAD 
                                                   Max.-Head-Change                         Max.-Flux-Residual
  Residual-Control   Outer-Iter.   Inner-Iter.     Column Row Layer    Maximum-Head-Change  Column Row Layer    Maximum-Flux-Residual          L2-NORM 
          0                 1           2             2    2     1       0.4600011005E-02       2   13    1         0.2552881087E+00      0.6954395017E+00
          0                 2           2             2    2     1      -0.4474563502E-03       4   13    1        -0.2464068951E-01      0.6862325168E-01
          0                 3           2             4    7     1      -0.2307001668E-01       4    8    1        -0.1239050895E+01      0.3048779457E+01
          0                 4           2             4    7     1       0.2401760793E-01       4    8    1         0.1325946266E+01      0.3247932931E+01
          0                 5           2             4    7     1      -0.9559192800E-03       4    8    1        -0.5424712134E-01      0.1328742776E+00
          0                 6           1             4    7     1       0.1179563463E-04       4    8    1         0.6880023650E-03      0.1685177917E-02

    ------------------------------------------------
       NWT REQUIRED            6 OUTER ITERATIONS 
       AND A TOTAL OF         11 INNER ITERATIONS.
    ------------------------------------------------

 NO OUTPUT CONTROL FOR STRESS PERIOD    6   TIME STEP   19
 
 SOLVING FOR HEAD 
                                                   Max.-Head-Change                         Max.-Flux-Residual
  Residual-Control   Outer-Iter.   Inner-Iter.     Column Row Layer    Maximum-Head-Change  Column Row Layer    Maximum-Flux-Residual          L2-NORM 
          0                 1           2             2    2     1       0.4577393883E-02       2   13    1         0.2482040331E+00      0.6861144236E+00
          0                 2           2             2    2     1      -0.4452563099E-03       4   13    1        -0.2400595543E-01      0.6772705824E-01
          0                 3           2             4    7     1      -0.2307293409E-01       4    8    1        -0.1239207571E+01      0.3049158935E+01
          0                 4           2             4    7     1       0.2402065674E-01       4    8    1         0.1326114591E+01      0.3248345204E+01
          0                 5           2             4    7     1      -0.9560406263E-03       4    8    1        -0.5425400805E-01      0.1328911394E+00
          0                 6           1             4    7     1       0.1179713206E-04       4    8    1         0.6880896929E-03      0.1685393542E-02

    ------------------------------------------------
       NWT REQUIRED            6 OUTER ITERATIONS 
       AND A TOTAL OF         11 INNER ITERATIONS.
    ------------------------------------------------

 NO OUTPUT CONTROL FOR STRESS PERIOD    6   TIME STEP   20
 
 SOLVING FOR HEAD 
                                                   Max.-Head-Change                         Max.-Flux-Residual
  Residual-Control   Outer-Iter.   Inner-Iter.     Column Row Layer    Maximum-Head-Change  Column Row Layer    Maximum-Flux-Residual          L2-NORM 
          0                 1           2             2    2     1       0.4555072898E-02       2   13    1         0.2416502449E+00      0.6775187430E+00
          0                 2           2             2    2     1      -0.4430850763E-03       2    2    1        -0.2374862572E-01      0.6689387339E-01
          0                 3           2             4    7     1      -0.2307571380E-01       4    8    1        -0.1239356851E+01      0.3049520704E+01
          0                 4           2             4    7     1       0.2402356229E-01       4    8    1         0.1326275007E+01      0.3248738116E+01
          0                 5           2             4    7     1      -0.9561562705E-03       4    8    1        -0.5426057118E-01      0.1329072172E+00
          0                 6           1             4    7     1       0.1179855891E-04       4    8    1         0.6881729360E-03      0.1685594088E-02

    ------------------------------------------------
       NWT REQUIRED            6 OUTER ITERATIONS 
       AND A TOTAL OF         11 INNER ITERATIONS.
    ------------------------------------------------

 NO OUTPUT CONTROL FOR STRESS PERIOD    6   TIME STEP   21
 
 SOLVING FOR HEAD 
                                                   Max.-Head-Change                         Max.-Flux-Residual
  Residual-Control   Outer-Iter.   Inner-Iter.     Column Row Layer    Maximum-Head-Change  Column Row Layer    Maximum-Flux-Residual          L2-NORM 
          0                 1           2             2    2     1       0.4533043873E-02       2    2    1         0.2363284737E+00      0.6695870127E+00
          0                 2           2             2    2     1      -0.4409422429E-03       2    2    1        -0.2363289284E-01      0.6613816095E-01
          0                 3           2             4    7     1      -0.2307836250E-01       4    8    1        -0.1239499096E+01      0.3049865613E+01
          0                 4           2             4    7     1       0.2402633152E-01       4    8    1         0.1326427897E+01      0.3249112600E+01
          0                 5           2             4    7     1      -0.9562664892E-03       4    8    1        -0.5426682641E-01      0.1329225331E+00
          0                 6           1             4    7     1       0.1179991856E-04       4    8    1         0.6882522489E-03      0.1685785648E-02

    ------------------------------------------------
       NWT REQUIRED            6 OUTER ITERATIONS 
       AND A TOTAL OF         11 INNER ITERATIONS.
    ------------------------------------------------

 NO OUTPUT CONTROL FOR STRESS PERIOD    6   TIME STEP   22
 
 SOLVING FOR HEAD 
                                                   Max.-Head-Change                         Max.-Flux-Residual
  Residual-Control   Outer-Iter.   Inner-Iter.     Column Row Layer    Maximum-Head-Change  Column Row Layer    Maximum-Flux-Residual          L2-NORM 
          0                 1           2             2    2     1       0.4511301943E-02       2    2    1         0.2351862897E+00      0.6622459734E+00
          0                 2           2             2    2     1      -0.4388273362E-03       2    2    1        -0.2351867379E-01      0.6543178669E-01
          0                 3           2             4    7     1      -0.2308088942E-01       4    8    1        -0.1239634901E+01      0.3050195016E+01
          0                 4           2             4    7     1       0.2402897587E-01       4    8    1         0.1326573899E+01      0.3249470212E+01
          0                 5           2             4    7     1      -0.9563717370E-03       4    8    1        -0.5427279985E-01      0.1329371653E+00
          0                 6           1             4    7     1       0.1180121750E-04       4    8    1         0.6883280225E-03      0.1685968574E-02

    ------------------------------------------------
       NWT REQUIRED            6 OUTER ITERATIONS 
       AND A TOTAL OF         11 INNER ITERATIONS.
    ------------------------------------------------

 NO OUTPUT CONTROL FOR STRESS PERIOD    6   TIME STEP   23
 
 SOLVING FOR HEAD 
                                                   Max.-Head-Change                         Max.-Flux-Residual
  Residual-Control   Outer-Iter.   Inner-Iter.     Column Row Layer    Maximum-Head-Change  Column Row Layer    Maximum-Flux-Residual          L2-NORM 
          0                 1           2             2    2     1       0.4489843068E-02       2    2    1         0.2340589912E+00      0.6554436946E+00
          0                 2           2             2    2     1      -0.4367399625E-03       2    2    1        -0.2340594328E-01      0.6477663172E-01
          0                 3           2             4    7     1      -0.2308330503E-01       4    8    1        -0.1239764579E+01      0.3050509773E+01
          0                 4           2             4    7     1       0.2403150250E-01       4    8    1         0.1326713392E+01      0.3249811897E+01
          0                 5           2             4    7     1      -0.9564723001E-03       4    8    1        -0.5427850698E-01      0.1329511376E+00
          0                 6           1             4    7     1       0.1180245819E-04       4    8    1         0.6884003883E-03      0.1686149884E-02

    ------------------------------------------------
       NWT REQUIRED            6 OUTER ITERATIONS 
       AND A TOTAL OF         11 INNER ITERATIONS.
    ------------------------------------------------

 NO OUTPUT CONTROL FOR STRESS PERIOD    6   TIME STEP   24
 
 SOLVING FOR HEAD 
                                                   Max.-Head-Change                         Max.-Flux-Residual
  Residual-Control   Outer-Iter.   Inner-Iter.     Column Row Layer    Maximum-Head-Change  Column Row Layer    Maximum-Flux-Residual          L2-NORM 
          0                 1           2             2    2     1       0.4468578202E-02       2    2    1         0.2329419221E+00      0.6491330633E+00
          0                 2           2             2    2     1      -0.4346714619E-03       2    2    1        -0.2329423575E-01      0.6416811262E-01
          0                 3           2             4    7     1      -0.2308561411E-01       4    8    1        -0.1239888584E+01      0.3050811097E+01
          0                 4           2             4    7     1       0.2403391822E-01       4    8    1         0.1326846767E+01      0.3250138600E+01
          0                 5           2             4    7     1      -0.9565684486E-03       4    8    1        -0.5428396375E-01      0.1329645116E+00
          0                 6           1             4    7     1       0.1180364488E-04       4    8    1         0.6884695940E-03      0.1686320148E-02

    ------------------------------------------------
       NWT REQUIRED            6 OUTER ITERATIONS 
       AND A TOTAL OF         11 INNER ITERATIONS.
    ------------------------------------------------

 NO OUTPUT CONTROL FOR STRESS PERIOD    6   TIME STEP   25
 
 SOLVING FOR HEAD 
                                                   Max.-Head-Change                         Max.-Flux-Residual
  Residual-Control   Outer-Iter.   Inner-Iter.     Column Row Layer    Maximum-Head-Change  Column Row Layer    Maximum-Flux-Residual          L2-NORM 
          0                 1           2             2    2     1       0.4447588419E-02       2    2    1         0.2318393589E+00      0.6432684704E+00
          0                 2           2             2    2     1      -0.4326297186E-03       2    2    1        -0.2318397880E-01      0.6360295588E-01
          0                 3           2             4    7     1      -0.2308782369E-01       4    8    1        -0.1240007345E+01      0.3051099759E+01
          0                 4           2             4    7     1       0.2403623217E-01       4    8    1         0.1326974528E+01      0.3250451560E+01
          0                 5           2             4    7     1      -0.9566605465E-03       4    8    1        -0.5428919089E-01      0.1329773114E+00
          0                 6           1             4    7     1       0.1180478117E-04       4    8    1         0.6885359105E-03      0.1686476785E-02

    ------------------------------------------------
       NWT REQUIRED            6 OUTER ITERATIONS 
       AND A TOTAL OF         11 INNER ITERATIONS.
    ------------------------------------------------

 NO OUTPUT CONTROL FOR STRESS PERIOD    6   TIME STEP   26
 
 SOLVING FOR HEAD 
                                                   Max.-Head-Change                         Max.-Flux-Residual
  Residual-Control   Outer-Iter.   Inner-Iter.     Column Row Layer    Maximum-Head-Change  Column Row Layer    Maximum-Flux-Residual          L2-NORM 
          0                 1           2             2    2     1       0.4426869918E-02       2    2    1         0.2307510586E+00      0.6378106958E+00
          0                 2           2             2    2     1      -0.4306143644E-03       2    2    1        -0.2307514816E-01      0.6307722087E-01
          0                 3           2             4    7     1      -0.2308994419E-01       4    8    1        -0.1240121173E+01      0.3051376487E+01
          0                 4           2             4    7     1       0.2403845151E-01       4    8    1         0.1327097057E+01      0.3250751701E+01
          0                 5           2             4    7     1      -0.9567488787E-03       4    8    1        -0.5429420396E-01      0.1329895871E+00
          0                 6           1             4    7     1       0.1180587131E-04       4    8    1         0.6885994817E-03      0.1686634538E-02

    ------------------------------------------------
       NWT REQUIRED            6 OUTER ITERATIONS 
       AND A TOTAL OF         11 INNER ITERATIONS.
    ------------------------------------------------

 NO OUTPUT CONTROL FOR STRESS PERIOD    6   TIME STEP   27
 
 SOLVING FOR HEAD 
                                                   Max.-Head-Change                         Max.-Flux-Residual
  Residual-Control   Outer-Iter.   Inner-Iter.     Column Row Layer    Maximum-Head-Change  Column Row Layer    Maximum-Flux-Residual          L2-NORM 
          0                 1           2             2    2     1       0.4406418542E-02       2    2    1         0.2296768240E+00      0.6327213707E+00
          0                 2           2             2    2     1      -0.4286249941E-03       2    2    1        -0.2296772409E-01      0.6258575464E-01
          0                 3           2             4    7     1      -0.2309197594E-01       4    8    1        -0.1240230285E+01      0.3051641822E+01
          0                 4           2             4    7     1       0.2404057843E-01       4    8    1         0.1327214488E+01      0.3251039364E+01
          0                 5           2             4    7     1      -0.9568335326E-03       4    8    1        -0.5429900841E-01      0.1330013629E+00
          0                 6           1             4    7     1       0.1180691597E-04       4    8    1         0.6886604015E-03      0.1686788398E-02

    ------------------------------------------------
       NWT REQUIRED            6 OUTER ITERATIONS 
       AND A TOTAL OF         11 INNER ITERATIONS.
    ------------------------------------------------

 NO OUTPUT CONTROL FOR STRESS PERIOD    6   TIME STEP   28
 
 SOLVING FOR HEAD 
                                                   Max.-Head-Change                         Max.-Flux-Residual
  Residual-Control   Outer-Iter.   Inner-Iter.     Column Row Layer    Maximum-Head-Change  Column Row Layer    Maximum-Flux-Residual          L2-NORM 
          0                 1           2             2    2     1       0.4386230226E-02       2    2    1         0.2286164395E+00      0.6279799451E+00
          0                 2           2             2    2     1      -0.4266612128E-03       2    2    1        -0.2286168507E-01      0.6212784057E-01
          0                 3           2             4    7     1      -0.2309392824E-01       4    8    1        -0.1240335228E+01      0.3051897315E+01
          0                 4           2             4    7     1       0.2404262437E-01       4    8    1         0.1327327454E+01      0.3251316082E+01
          0                 5           2             4    7     1      -0.9569149636E-03       4    8    1        -0.5430363023E-01      0.1330126781E+00
          0                 6           1             4    7     1       0.1180792075E-04       4    8    1         0.6887190261E-03      0.1686934232E-02

    ------------------------------------------------
       NWT REQUIRED            6 OUTER ITERATIONS 
       AND A TOTAL OF         11 INNER ITERATIONS.
    ------------------------------------------------

 NO OUTPUT CONTROL FOR STRESS PERIOD    6   TIME STEP   29
 
 SOLVING FOR HEAD 
                                                   Max.-Head-Change                         Max.-Flux-Residual
  Residual-Control   Outer-Iter.   Inner-Iter.     Column Row Layer    Maximum-Head-Change  Column Row Layer    Maximum-Flux-Residual          L2-NORM 
          0                 1           2             2    2     1       0.4097821437E-02       2    2    1         0.2135388071E+00      0.5518024392E+00
          0                 2           2             2    2     1      -0.3986068062E-03       2    2    1        -0.2135391548E-01      0.5477178476E-01
          0                 3           2             4    7     1      -0.2309580271E-01       4    8    1        -0.1240435836E+01      0.3052109432E+01
          0                 4           2             4    7     1       0.2404458727E-01       4    8    1         0.1327435825E+01      0.3251581477E+01
          0                 5           2             4    7     1      -0.9569930895E-03       4    8    1        -0.5430806404E-01      0.1330235466E+00
          0                 6           1             4    7     1       0.1180888499E-04       4    8    1         0.6887752622E-03      0.1687070459E-02

    ------------------------------------------------
       NWT REQUIRED            6 OUTER ITERATIONS 
       AND A TOTAL OF         11 INNER ITERATIONS.
    ------------------------------------------------

 NO OUTPUT CONTROL FOR STRESS PERIOD    6   TIME STEP   30



 STREAM LISTING     PERIOD      6   STEP       30

 LAYER ROW COL. STREAM  RCH.  FLOW INTO     FLOW TO   FLOW OUT OF   OVRLND.     DIRECT     STREAM       STREAM     STREAM     STREAM   STREAMBED  STREAMBED
                SEG.NO.  NO.  STRM. RCH.    AQUIFER    STRM. RCH.    RUNOFF     PRECIP       ET          HEAD       DEPTH      WIDTH   CONDCTNC.   GRADIENT

   1    1    1     1     1    3.4633E+01  2.8494E-01   3.4348E+01  0.000E+00  0.000E+00  0.000E+00  1.09434E+03  1.289E+00  1.476E+01  6.643E-02  1.430E+00
   1    2    2     1     2    3.4348E+01  4.4115E-01   3.3907E+01  0.000E+00  0.000E+00  0.000E+00  1.08934E+03  1.286E+00  1.470E+01  1.029E-01  1.429E+00
   1    3    3     1     3    3.3907E+01  3.7610E-01   3.3531E+01  0.000E+00  0.000E+00  0.000E+00  1.08370E+03  1.283E+00  1.464E+01  8.782E-02  1.428E+00
   1    3    4     1     4    3.3531E+01  3.4622E-01   3.3185E+01  0.000E+00  0.000E+00  0.000E+00  1.07869E+03  1.280E+00  1.458E+01  8.090E-02  1.427E+00
   1    4    5     2     1    3.1185E+01  3.4119E-01   3.0843E+01  0.000E+00  0.000E+00  0.000E+00  1.07331E+03  1.374E+00  1.200E+01  7.800E-02  1.458E+00
   1    5    6     2     2    3.0843E+01  2.6198E-01   3.0581E+01  0.000E+00  0.000E+00  0.000E+00  1.06788E+03  1.366E+00  1.200E+01  6.000E-02  1.455E+00
   1    6    6     2     3    3.0581E+01  2.6156E-01   3.0320E+01  0.000E+00  0.000E+00  0.000E+00  1.06315E+03  1.359E+00  1.200E+01  6.000E-02  1.453E+00
   1    7    6     2     4    3.0320E+01  2.6113E-01   3.0059E+01  0.000E+00  0.000E+00  0.000E+00  1.05843E+03  1.352E+00  1.200E+01  6.000E-02  1.451E+00
   1    8    6     2     5    3.0059E+01  2.6071E-01   2.9798E+01  0.000E+00  0.000E+00  0.000E+00  1.05370E+03  1.345E+00  1.200E+01  6.000E-02  1.448E+00
   1    3    5     3     1    2.0000E+00  2.8252E-01   1.7175E+00  0.000E+00  0.000E+00  0.000E+00  1.07555E+03  1.909E+00  9.636E+00  7.227E-02  1.955E+00
   1    3    6     3     2    1.7175E+00  2.4905E-01   1.4684E+00  0.000E+00  0.000E+00  0.000E+00  1.07264E+03  1.727E+00  8.909E+00  6.682E-02  1.864E+00
   1    3    7     3     3    1.4684E+00  1.9718E-01   1.2712E+00  0.000E+00  0.000E+00  0.000E+00  1.06987E+03  1.555E+00  8.218E+00  5.547E-02  1.777E+00
   1    4    8     3     4    1.2712E+00  2.2567E-01   1.0456E+00  0.000E+00  0.000E+00  0.000E+00  1.06682E+03  1.364E+00  7.455E+00  6.709E-02  1.682E+00
   1    5    8     3     5    1.0456E+00  1.5790E-01   8.8768E-01  0.000E+00  0.000E+00  0.000E+00  1.06362E+03  1.164E+00  6.655E+00  4.991E-02  1.582E+00
   1    6    8     3     6    8.8768E-01  5.5980E-02   8.3170E-01  0.000E+00  0.000E+00  0.000E+00  1.06158E+03  1.036E+00  6.145E+00  1.844E-02  1.518E+00
   1    5   10     4     1    1.0000E+01  9.0919E-02   9.9091E+00  0.000E+00  0.000E+00  0.000E+00  1.07836E+03  6.368E-01  1.000E+01  2.500E-02  1.212E+00
   1    5    9     4     2    9.9091E+00  1.8158E-01   9.7275E+00  0.000E+00  0.000E+00  0.000E+00  1.07154E+03  6.315E-01  1.000E+01  5.000E-02  1.211E+00
   1    6    8     4     3    9.7275E+00  1.2689E-01   9.6006E+00  0.000E+00  0.000E+00  0.000E+00  1.06381E+03  6.256E-01  1.000E+01  3.500E-02  1.209E+00
   1    6    8     5     1    1.0432E+01  2.2686E-01   1.0205E+01  0.000E+00  0.000E+00  0.000E+00  1.05868E+03  6.790E-01  1.542E+01  6.166E-02  1.226E+00
   1    7    7     5     2    1.0205E+01  2.7894E-01   9.9265E+00  0.000E+00  0.000E+00  0.000E+00  1.05417E+03  6.732E-01  1.519E+01  7.594E-02  1.224E+00
   1    8    7     5     3    9.9265E+00  1.9221E-01   9.7343E+00  0.000E+00  0.000E+00  0.000E+00  1.04992E+03  6.676E-01  1.497E+01  5.241E-02  1.223E+00
   1    8    6     5     4    9.7343E+00  1.3577E-01   9.5985E+00  0.000E+00  0.000E+00  0.000E+00  1.04691E+03  6.637E-01  1.482E+01  3.706E-02  1.221E+00
   1    9    6     6     1    3.1953E+01  2.6467E-01   3.1688E+01  0.000E+00  0.000E+00  0.000E+00  1.04414E+03  1.411E+00  1.200E+01  6.000E-02  1.470E+00
   1   10    7     6     2    3.1688E+01  2.6425E-01   3.1424E+01  0.000E+00  0.000E+00  0.000E+00  1.03959E+03  1.404E+00  1.200E+01  6.000E-02  1.468E+00
   1   11    7     6     3    3.1424E+01  2.6383E-01   3.1160E+01  0.000E+00  0.000E+00  0.000E+00  1.03503E+03  1.397E+00  1.200E+01  6.000E-02  1.466E+00
   1   12    7     6     4    3.1160E+01  2.6340E-01   3.0897E+01  0.000E+00  0.000E+00  0.000E+00  1.03048E+03  1.390E+00  1.200E+01  6.000E-02  1.463E+00
   1   13    7     6     5    3.0897E+01  1.0359E-02   3.0887E+01  0.000E+00  0.000E+00  0.000E+00  1.02730E+03  1.386E+00  1.200E+01  2.400E-02  1.439E-01
   1   14    9     7     1    1.5000E+02  1.3677E+00   1.4863E+02  0.000E+00  0.000E+00  0.000E+00  1.03987E+03  2.288E+00  5.529E+01  5.593E-01  8.152E-01
   1   13    8     7     2    1.4863E+02  1.9156E+00   1.4672E+02  0.000E+00  0.000E+00  0.000E+00  1.03478E+03  2.279E+00  5.526E+01  6.148E-01  1.039E+00
   1   13    7     7     3    1.4672E+02  1.5776E+00   1.4514E+02  0.000E+00  0.000E+00  0.000E+00  1.02969E+03  2.270E+00  5.521E+01  5.584E-01  9.417E-01
   1   13    6     8     1    1.7603E+02  1.0370E+00   1.7499E+02  0.000E+00  0.000E+00  0.000E+00  1.02486E+03  2.988E+00  4.332E+01  4.415E-01  7.830E-01
   1   13    5     8     2    1.7499E+02  2.6046E-01   1.7473E+02  0.000E+00  0.000E+00  0.000E+00  1.01861E+03  2.984E+00  4.326E+01  4.409E-01  1.969E-01
   1   13    4     8     3    1.7473E+02 -2.2247E+00   1.7695E+02  0.000E+00  0.000E+00  0.000E+00  1.01236E+03  2.990E+00  4.335E+01  4.418E+00 -1.679E-01
   1   13    3     8     4    1.7695E+02 -3.5405E+00   1.8049E+02  0.000E+00  0.000E+00  0.000E+00  1.00613E+03  3.008E+00  4.362E+01  4.445E+00 -2.655E-01
   1   13    2     8     5    1.8049E+02 -2.5377E+00   1.8303E+02  0.000E+00  0.000E+00  0.000E+00  9.99902E+02  3.027E+00  4.389E+01  4.473E+00 -1.891E-01
   1   13    1     8     6    1.8303E+02 -1.9427E+00   1.8497E+02  0.000E+00  0.000E+00  0.000E+00  9.94916E+02  3.041E+00  4.410E+01  2.696E+00 -2.402E-01
   1    8    6     9     1    7.4436E+00  0.0000E+00   7.4436E+00  0.000E+00  0.000E+00  0.000E+00  1.08065E+03  1.898E+00  4.000E+00  0.000E+00  1.633E+00
   1    8    5     9     2    7.4436E+00  0.0000E+00   7.4436E+00  0.000E+00  0.000E+00  0.000E+00  1.08015E+03  1.898E+00  4.000E+00  0.000E+00  1.633E+00





UNSATURATED ZONE PACKAGE VOLUMETRIC BUDGET FOR  TIME STEP    30 STRESS PERIOD    6
  ------------------------------------------------------------------------------



     CUMULATIVE VOLUMES      L**3       RATES FOR THIS TIME STEP      L**3/T
     ------------------                 ------------------------

           IN:                                      IN:
           ---                                      ---
        INFILTRATION =    40878620.2341          INFILTRATION =           8.2912

          OUT:                                     OUT:
          ----                                     ----
              UZF ET =    40493063.4291                UZF ET =           8.3175
        UZF RECHARGE =       73224.0000          UZF RECHARGE =       0.0000E+00

            IN - OUT =      312332.8050              IN - OUT =      -2.6294E-02

          STORAGE:                                 STORAGE:
          --------                                 --------
      STORAGE CHANGE =      312331.5802        STORAGE CHANGE =      -2.6293E-02

 PERCENT DISCREPANCY IS DIFFERENCE BETWEEN IN-OUT MINUS CHANGE IN STORAGE
 DIVIDED BY THE AVERAGE OF IN AND OUT TIMES 100

 PERCENT DISCREPANCY =           0.00     PERCENT DISCREPANCY =          -0.00






1
  VOLUMETRIC BUDGET FOR AGRICULTURAL FIELDS AT  END OF TIME STEP   30, STRESS PERIOD   6
  ------------------------------------------------------------------------------

     CUMULATIVE VOLUMES      L**3       RATES FOR THIS TIME STEP      L**3/T
     ------------------                 ------------------------

           IN:                                      IN:
           ---                                      ---
           AG WELLS      =       76629.8672             AG WELLS      =           0.0000
      DIVERSION SEGMENTS =    29583552.0000        DIVERSION SEGMENTS =           7.4436
           GW IRRIGATION =           0.0000             GW IRRIGATION =           0.0000
           SW IRRIGATION =           0.0000             SW IRRIGATION =           0.0000
        SYSTEM LOSSES GW =           0.0000          SYSTEM LOSSES GW =           0.0000
        SYSTEM LOSSES SW =           0.0000          SYSTEM LOSSES SW =           0.0000

                TOTAL IN =    29660182.0000                  TOTAL IN =           7.4436

          OUT:                                     OUT:
          ----                                     ----
           AG WELLS      =           0.0000             AG WELLS      =           0.0000
      DIVERSION SEGMENTS =           0.0000        DIVERSION SEGMENTS =           0.0000
           GW IRRIGATION =       76629.8672             GW IRRIGATION =           0.0000
           SW IRRIGATION =    29584148.0000             SW IRRIGATION =           7.4437
        SYSTEM LOSSES GW =           0.0000          SYSTEM LOSSES GW =           0.0000
        SYSTEM LOSSES SW =           0.0000          SYSTEM LOSSES SW =           0.0000

               TOTAL OUT =    29660778.0000                 TOTAL OUT =           7.4437

                IN - OUT =        -596.0000                  IN - OUT =      -1.4877E-04

     PERCENT DISCREPANCY =          -0.00         PERCENT DISCREPANCY =          -0.00



1
  VOLUMETRIC BUDGET FOR ENTIRE MODEL AT END OF TIME STEP   30, STRESS PERIOD   6
  ------------------------------------------------------------------------------

     CUMULATIVE VOLUMES      L**3       RATES FOR THIS TIME STEP      L**3/T
     ------------------                 ------------------------

           IN:                                      IN:
           ---                                      ---
             STORAGE     =     8168716.5000               STORAGE     =           0.3855
       CONSTANT HEAD     =           0.0000         CONSTANT HEAD     =           0.0000
     HEAD DEP BOUNDS     =     3810180.0000       HEAD DEP BOUNDS     =           0.2879
      STREAM LEAKAGE     =   156236560.0000        STREAM LEAKAGE     =          12.4613
        UZF RECHARGE     =       73223.9531          UZF RECHARGE     =           0.0000
               GW ET     =           0.0000                 GW ET     =           0.0000
     SURFACE LEAKAGE     =           0.0000       SURFACE LEAKAGE     =           0.0000
           AG WELLS      =           0.0000             AG WELLS      =           0.0000

                TOTAL IN =   168288672.0000                  TOTAL IN =          13.1348

          OUT:                                     OUT:
          ----                                     ----
             STORAGE     =    29871772.0000               STORAGE     =           2.5990
       CONSTANT HEAD     =           0.0000         CONSTANT HEAD     =           0.0000
     HEAD DEP BOUNDS     =     3818298.0000       HEAD DEP BOUNDS     =           0.2902
      STREAM LEAKAGE     =   134525488.0000        STREAM LEAKAGE     =          10.2455
        UZF RECHARGE     =           0.0000          UZF RECHARGE     =           0.0000
               GW ET     =           0.0000                 GW ET     =           0.0000
     SURFACE LEAKAGE     =           0.0000       SURFACE LEAKAGE     =           0.0000
           AG WELLS      =       76629.8672             AG WELLS      =           0.0000

               TOTAL OUT =   168292176.0000                 TOTAL OUT =          13.1347

                IN - OUT =       -3504.0000                  IN - OUT =       6.4850E-05

     PERCENT DISCREPANCY =          -0.00         PERCENT DISCREPANCY =           0.00






         TIME SUMMARY AT END OF TIME STEP   30 IN STRESS PERIOD    6
                    SECONDS     MINUTES      HOURS       DAYS        YEARS
                    -----------------------------------------------------------
   TIME STEP LENGTH  87667.      1461.1      24.352      1.0147     2.77799E-03
 STRESS PERIOD TIME 2.63000E+06  43833.      730.56      30.440     8.33397E-02
         TOTAL TIME 1.32364E+07 2.20607E+05  3676.8      153.20     0.41944    
1
1
                            STRESS PERIOD NO.    7, LENGTH =   2630000.    
                            -----------------------------------------------

                              NUMBER OF TIME STEPS =    30

                               MULTIPLIER FOR DELT =     1.000

                            INITIAL TIME STEP SIZE =   87666.66    

 REUSING NON-PARAMETER GHB CELLS FROM LAST STRESS PERIOD

      2 GHB CELLS

 REUSING STREAM SEGMENT DATA FROM LAST STRESS PERIOD



            AREAL INFILTRATION RATE
 READING ON UNIT   19 WITH FORMAT: (FREE)              

            1           2           3           4           5           6           7           8           9          10
 ........................................................................................................................
   1   1.0000E-10  2.0000E-10   0.000       0.000       0.000       0.000       0.000       0.000       0.000       0.000    
   2   2.0000E-10  1.0000E-10  2.0000E-10   0.000       0.000      8.0000E-10  8.0000E-10  5.0000E-10   0.000       0.000    
   3    0.000      5.0000E-10  1.0000E-10  1.0000E-10  8.0000E-10  8.0000E-10  5.0000E-10  5.0000E-10   0.000       0.000    
   4   8.0000E-10  5.0000E-10  1.0000E-10  1.0000E-10  1.0000E-10  1.0000E-10  1.0000E-10  1.0000E-10  2.0000E-10   0.000    
   5   8.0000E-10  5.0000E-10  1.0000E-10  1.0000E-10  1.0000E-10  1.0000E-10  1.0000E-10  1.0000E-10  1.0000E-10  1.0000E-10
   6   8.0000E-10  5.0000E-10  5.0000E-10  2.0000E-10  2.0000E-10  1.0000E-10  1.0000E-10  1.0000E-10  1.0000E-10  5.0000E-10
   7   8.0000E-10  5.0000E-10  5.0000E-10  2.0000E-10  2.0000E-10  1.0000E-10  1.0000E-10  2.0000E-10  2.0000E-10   0.000    
   8    0.000      5.0000E-10  5.0000E-10  2.0000E-10  2.0000E-10  1.0000E-10  1.0000E-10  2.0000E-10  5.0000E-10   0.000    
   9    0.000      5.0000E-10  5.0000E-10  2.0000E-10  2.0000E-10  1.0000E-10  1.0000E-10  2.0000E-10  5.0000E-10   0.000    
  10    0.000      5.0000E-10  5.0000E-10  2.0000E-10  2.0000E-10  1.0000E-10  1.0000E-10  2.0000E-10  5.0000E-10  8.0000E-10
  11    0.000      1.0000E-10  1.0000E-10  1.0000E-10  1.0000E-10  1.0000E-10  1.0000E-10  2.0000E-10  5.0000E-10   0.000    
  12   1.0000E-10  1.0000E-10  1.0000E-10  1.0000E-10  1.0000E-10  1.0000E-10  1.0000E-10  1.0000E-10  2.0000E-10   0.000    
  13   1.0000E-10  1.0000E-10  2.0000E-10  2.0000E-10  2.0000E-10  2.0000E-10  2.0000E-10  1.0000E-10  1.0000E-10   0.000    
  14    0.000      2.0000E-10  5.0000E-10  5.0000E-10  5.0000E-10  5.0000E-10  5.0000E-10  2.0000E-10  1.0000E-10   0.000    
  15    0.000       0.000      8.0000E-10  8.0000E-10  8.0000E-10  8.0000E-10   0.000       0.000       0.000       0.000    

                  ET RATE =  1.500000E-07

 USING ET EXTINCTION DEPTH FROM PREVIOUS STRESS PERIOD. CURRENT PERIOD IS:       7

 USING EXTINCTION WATER CONTENT FROM PREVIOUS STRESS PERIOD. CURRENT PERIOD IS:       7

 USING AIR ENTRY PRESSURE FROM PREVIOUS STRESS PERIOD. CURRENT PERIOD IS:       7

 USING ROOT PRESSURE HEAD FROM PREVIOUS STRESS PERIOD. CURRENT PERIOD IS:       7

 USING ROOT ACTIVITY FROM PREVIOUS STRESS PERIOD. CURRENT PERIOD IS:       7

 PROCESSING AG STRESS PERIOD DATA

 READING AG STRESS PERIOD DATA

 READING IRRIGATION SEGMENT

 READING IRRIGATION WELL

 READING SUPPLEMENTAL WELL

 END PROCESSING AG STRESS PERIOD DATA OPTIONS
 
 SOLVING FOR HEAD 
                                                   Max.-Head-Change                         Max.-Flux-Residual
  Residual-Control   Outer-Iter.   Inner-Iter.     Column Row Layer    Maximum-Head-Change  Column Row Layer    Maximum-Flux-Residual          L2-NORM 
          0                 1           2             4   13     1      -0.7574484330E-02       4   13    1        -0.4341035199E+00      0.8395533234E+00
          0                 2           2             4    7     1      -0.4004860137E-01       5    6    1        -0.2152902724E+01      0.5271147884E+01
          0                 3           2             4    7     1       0.1446526374E-01       5    6    1         0.7987347338E+00      0.1956119840E+01
          0                 4           2             4    7     1      -0.5756147230E-03       4    6    1        -0.3277508148E-01      0.8005751911E-01
          0                 5           1             4    7     1       0.7097573641E-05       4    6    1         0.4153609975E-03      0.1014752191E-02

    ------------------------------------------------
       NWT REQUIRED            5 OUTER ITERATIONS 
       AND A TOTAL OF          9 INNER ITERATIONS.
    ------------------------------------------------

 NO OUTPUT CONTROL FOR STRESS PERIOD    7   TIME STEP    1
 
 SOLVING FOR HEAD 
                                                   Max.-Head-Change                         Max.-Flux-Residual
  Residual-Control   Outer-Iter.   Inner-Iter.     Column Row Layer    Maximum-Head-Change  Column Row Layer    Maximum-Flux-Residual          L2-NORM 
          0                 1           2             2    2     1       0.3669363178E-02       2    2    1         0.1911394461E+00      0.5166046552E+00
          0                 2           2             7   13     1      -0.2335765061E-02       7   13    1        -0.1295588577E+00      0.1380348112E+00
          0                 3           2             4    7     1      -0.2156467976E-01       4    7    1        -0.1158151645E+01      0.2849451152E+01
          0                 4           2             4    7     1       0.2193112439E-01       4    7    1         0.1210752653E+01      0.2965489151E+01
          0                 5           2             4    7     1      -0.8343801754E-03       4    6    1        -0.4747916727E-01      0.1162235493E+00
          0                 6           2             4    7     1      -0.1784877563E-03       5    6    1        -0.1012838887E-01      0.2628342176E-01
          0                 7           2             4    7     1       0.1808272978E-03       4    8    1         0.1054630996E-01      0.2657015325E-01
          0                 8           1             4   13     1      -0.5699054663E-04       4   13    1        -0.3548533815E-02      0.6353565641E-02

    ------------------------------------------------
       NWT REQUIRED            8 OUTER ITERATIONS 
       AND A TOTAL OF         15 INNER ITERATIONS.
    ------------------------------------------------

 NO OUTPUT CONTROL FOR STRESS PERIOD    7   TIME STEP    2
 
 SOLVING FOR HEAD 
                                                   Max.-Head-Change                         Max.-Flux-Residual
  Residual-Control   Outer-Iter.   Inner-Iter.     Column Row Layer    Maximum-Head-Change  Column Row Layer    Maximum-Flux-Residual          L2-NORM 
          0                 1           2             2    2     1       0.3654779996E-02       2    2    1         0.1903739778E+00      0.4970599189E+00
          0                 2           2             4    7     1      -0.4552186099E-01       5    6    1        -0.2449928153E+01      0.6023866379E+01
          0                 3           2             4    7     1       0.2436268337E-01       5    6    1         0.1345370366E+01      0.3304064045E+01
          0                 4           2             4    7     1       0.2195098601E-01       4    6    1         0.1211884436E+01      0.2968610243E+01
          0                 5           2             4    7     1      -0.8737116914E-03       4    6    1        -0.4977604885E-01      0.1215382022E+00
          0                 6           1             4    7     1       0.1078147647E-04       4    6    1         0.6312980524E-03      0.1543980186E-02

    ------------------------------------------------
       NWT REQUIRED            6 OUTER ITERATIONS 
       AND A TOTAL OF         11 INNER ITERATIONS.
    ------------------------------------------------

 NO OUTPUT CONTROL FOR STRESS PERIOD    7   TIME STEP    3
 
 SOLVING FOR HEAD 
                                                   Max.-Head-Change                         Max.-Flux-Residual
  Residual-Control   Outer-Iter.   Inner-Iter.     Column Row Layer    Maximum-Head-Change  Column Row Layer    Maximum-Flux-Residual          L2-NORM 
          0                 1           2             2    2     1       0.3640375071E-02       2    2    1         0.1896178535E+00      0.5397664120E+00
          0                 2           2             7   13     1      -0.2335089454E-02       7   13    1        -0.1295191056E+00      0.1386363695E+00
          0                 3           2             4    7     1      -0.6972352514E-01       4    7    1        -0.3744552860E+01      0.9213193179E+01
          0                 4           2             4    7     1       0.7261595725E-01       4    8    1         0.4006997733E+01      0.9814330575E+01
          0                 5           2             4    7     1      -0.2924008325E-02       4    7    1        -0.1660372510E+00      0.4025324127E+00
          0                 6           1             4    7     1       0.3608090002E-04       4    7    1         0.2105756577E-02      0.5105948474E-02

    ------------------------------------------------
       NWT REQUIRED            6 OUTER ITERATIONS 
       AND A TOTAL OF         11 INNER ITERATIONS.
    ------------------------------------------------

 NO OUTPUT CONTROL FOR STRESS PERIOD    7   TIME STEP    4
 
 SOLVING FOR HEAD 
                                                   Max.-Head-Change                         Max.-Flux-Residual
  Residual-Control   Outer-Iter.   Inner-Iter.     Column Row Layer    Maximum-Head-Change  Column Row Layer    Maximum-Flux-Residual          L2-NORM 
          0                 1           2             2    2     1       0.3626230518E-02       4   13    1         0.1943244180E+00      0.5631775887E+00
          0                 2           2             7   13     1      -0.2336950408E-02       7   13    1        -0.1296204653E+00      0.1394479604E+00
          0                 3           2             4    7     1      -0.6972345645E-01       4    7    1        -0.3744548795E+01      0.9213330550E+01
          0                 4           2             4    7     1       0.7261645249E-01       4    8    1         0.4006998275E+01      0.9814359325E+01
          0                 5           2             4    7     1      -0.2924509835E-02       4    7    1        -0.1660667166E+00      0.4025607695E+00
          0                 6           1             4    7     1       0.3608708867E-04       4    7    1         0.2106130269E-02      0.5106322709E-02

    ------------------------------------------------
       NWT REQUIRED            6 OUTER ITERATIONS 
       AND A TOTAL OF         11 INNER ITERATIONS.
    ------------------------------------------------

 OUTPUT CONTROL FOR STRESS PERIOD    7   TIME STEP    5
    PRINT BUDGET
    SAVE BUDGET
 UBDSV1 SAVING "         STORAGE" ON UNIT 102 AT TIME STEP  5, STRESS PERIOD   7
 UBDSV2 SAVING "   CONSTANT HEAD" ON UNIT 102 AT TIME STEP  5, STRESS PERIOD   7
 UBDSV1 SAVING "FLOW RIGHT FACE " ON UNIT 102 AT TIME STEP  5, STRESS PERIOD   7
 UBDSV1 SAVING "FLOW FRONT FACE " ON UNIT 102 AT TIME STEP  5, STRESS PERIOD   7

  HEAD DEP BOUNDS   PERIOD    7   STEP     5
 BOUNDARY      1   LAYER   1   ROW    13   COL     1   RATE   -0.289706    
 BOUNDARY      2   LAYER   1   ROW    14   COL     9   RATE    0.287936    



 STREAM LISTING     PERIOD      7   STEP        5

 LAYER ROW COL. STREAM  RCH.  FLOW INTO     FLOW TO   FLOW OUT OF   OVRLND.     DIRECT     STREAM       STREAM     STREAM     STREAM   STREAMBED  STREAMBED
                SEG.NO.  NO.  STRM. RCH.    AQUIFER    STRM. RCH.    RUNOFF     PRECIP       ET          HEAD       DEPTH      WIDTH   CONDCTNC.   GRADIENT

   1    1    1     1     1    3.1125E+01  2.7165E-01   3.0853E+01  0.000E+00  0.000E+00  0.000E+00  1.09431E+03  1.259E+00  1.417E+01  6.378E-02  1.420E+00
   1    2    2     1     2    3.0853E+01  4.2045E-01   3.0433E+01  0.000E+00  0.000E+00  0.000E+00  1.08931E+03  1.256E+00  1.411E+01  9.879E-02  1.419E+00
   1    3    3     1     3    3.0433E+01  3.5834E-01   3.0075E+01  0.000E+00  0.000E+00  0.000E+00  1.08367E+03  1.252E+00  1.404E+01  8.427E-02  1.417E+00
   1    3    4     1     4    3.0075E+01  3.2976E-01   2.9745E+01  0.000E+00  0.000E+00  0.000E+00  1.07866E+03  1.249E+00  1.398E+01  7.761E-02  1.416E+00
   1    4    5     2     1    2.7745E+01  3.3390E-01   2.7411E+01  0.000E+00  0.000E+00  0.000E+00  1.07321E+03  1.281E+00  1.200E+01  7.800E-02  1.427E+00
   1    5    6     2     2    2.7411E+01  2.5635E-01   2.7155E+01  0.000E+00  0.000E+00  0.000E+00  1.06778E+03  1.273E+00  1.200E+01  6.000E-02  1.424E+00
   1    6    6     2     3    2.7155E+01  2.5592E-01   2.6899E+01  0.000E+00  0.000E+00  0.000E+00  1.06306E+03  1.265E+00  1.200E+01  6.000E-02  1.422E+00
   1    7    6     2     4    2.6899E+01  2.5549E-01   2.6643E+01  0.000E+00  0.000E+00  0.000E+00  1.05833E+03  1.258E+00  1.200E+01  6.000E-02  1.419E+00
   1    8    6     2     5    2.6643E+01  2.5506E-01   2.6388E+01  0.000E+00  0.000E+00  0.000E+00  1.05361E+03  1.251E+00  1.200E+01  6.000E-02  1.417E+00
   1    3    5     3     1    2.0000E+00  2.8252E-01   1.7175E+00  0.000E+00  0.000E+00  0.000E+00  1.07555E+03  1.909E+00  9.636E+00  7.227E-02  1.955E+00
   1    3    6     3     2    1.7175E+00  2.4905E-01   1.4684E+00  0.000E+00  0.000E+00  0.000E+00  1.07264E+03  1.727E+00  8.909E+00  6.682E-02  1.864E+00
   1    3    7     3     3    1.4684E+00  1.9718E-01   1.2712E+00  0.000E+00  0.000E+00  0.000E+00  1.06987E+03  1.555E+00  8.218E+00  5.547E-02  1.777E+00
   1    4    8     3     4    1.2712E+00  2.2567E-01   1.0456E+00  0.000E+00  0.000E+00  0.000E+00  1.06682E+03  1.364E+00  7.455E+00  6.709E-02  1.682E+00
   1    5    8     3     5    1.0456E+00  1.5790E-01   8.8768E-01  0.000E+00  0.000E+00  0.000E+00  1.06362E+03  1.164E+00  6.655E+00  4.991E-02  1.582E+00
   1    6    8     3     6    8.8768E-01  5.5980E-02   8.3170E-01  0.000E+00  0.000E+00  0.000E+00  1.06158E+03  1.036E+00  6.145E+00  1.844E-02  1.518E+00
   1    5   10     4     1    1.0000E+01  9.0919E-02   9.9091E+00  0.000E+00  0.000E+00  0.000E+00  1.07836E+03  6.368E-01  1.000E+01  2.500E-02  1.212E+00
   1    5    9     4     2    9.9091E+00  1.8158E-01   9.7275E+00  0.000E+00  0.000E+00  0.000E+00  1.07154E+03  6.315E-01  1.000E+01  5.000E-02  1.211E+00
   1    6    8     4     3    9.7275E+00  1.2689E-01   9.6006E+00  0.000E+00  0.000E+00  0.000E+00  1.06381E+03  6.256E-01  1.000E+01  3.500E-02  1.209E+00
   1    6    8     5     1    1.0432E+01  2.2686E-01   1.0205E+01  0.000E+00  0.000E+00  0.000E+00  1.05868E+03  6.790E-01  1.542E+01  6.166E-02  1.226E+00
   1    7    7     5     2    1.0205E+01  2.7894E-01   9.9265E+00  0.000E+00  0.000E+00  0.000E+00  1.05417E+03  6.732E-01  1.519E+01  7.594E-02  1.224E+00
   1    8    7     5     3    9.9265E+00  1.9221E-01   9.7343E+00  0.000E+00  0.000E+00  0.000E+00  1.04992E+03  6.676E-01  1.497E+01  5.241E-02  1.223E+00
   1    8    6     5     4    9.7343E+00  1.3577E-01   9.5985E+00  0.000E+00  0.000E+00  0.000E+00  1.04691E+03  6.637E-01  1.482E+01  3.706E-02  1.221E+00
   1    9    6     6     1    1.3518E+01  2.3040E-01   1.3287E+01  0.000E+00  0.000E+00  0.000E+00  1.04357E+03  8.400E-01  1.200E+01  6.000E-02  1.280E+00
   1   10    7     6     2    1.3287E+01  2.2988E-01   1.3057E+01  0.000E+00  0.000E+00  0.000E+00  1.03901E+03  8.313E-01  1.200E+01  6.000E-02  1.277E+00
   1   11    7     6     3    1.3057E+01  2.2936E-01   1.2828E+01  0.000E+00  0.000E+00  0.000E+00  1.03446E+03  8.226E-01  1.200E+01  6.000E-02  1.274E+00
   1   12    7     6     4    1.2828E+01  2.2883E-01   1.2599E+01  0.000E+00  0.000E+00  0.000E+00  1.02990E+03  8.138E-01  1.200E+01  6.000E-02  1.271E+00
   1   13    7     6     5    1.2599E+01 -3.4302E-02   1.2634E+01  0.000E+00  0.000E+00  0.000E+00  1.02672E+03  8.101E-01  1.200E+01  2.400E-01 -4.764E-02
   1   14    9     7     1    1.5000E+02  1.3678E+00   1.4863E+02  0.000E+00  0.000E+00  0.000E+00  1.03987E+03  2.288E+00  5.529E+01  5.593E-01  8.152E-01
   1   13    8     7     2    1.4863E+02  1.9154E+00   1.4672E+02  0.000E+00  0.000E+00  0.000E+00  1.03478E+03  2.279E+00  5.526E+01  6.148E-01  1.039E+00
   1   13    7     7     3    1.4672E+02  1.5785E+00   1.4514E+02  0.000E+00  0.000E+00  0.000E+00  1.02969E+03  2.270E+00  5.521E+01  5.584E-01  9.423E-01
   1   13    6     8     1    1.5777E+02  9.4611E-01   1.5683E+02  0.000E+00  0.000E+00  0.000E+00  1.02474E+03  2.867E+00  4.158E+01  4.237E-01  7.443E-01
   1   13    5     8     2    1.5683E+02  2.0025E-01   1.5663E+02  0.000E+00  0.000E+00  0.000E+00  1.01849E+03  2.864E+00  4.152E+01  4.231E-01  1.578E-01
   1   13    4     8     3    1.5663E+02 -2.5301E+00   1.5916E+02  0.000E+00  0.000E+00  0.000E+00  1.01225E+03  2.872E+00  4.164E+01  4.243E+00 -1.988E-01
   1   13    3     8     4    1.5916E+02 -3.8005E+00   1.6296E+02  0.000E+00  0.000E+00  0.000E+00  1.00602E+03  2.893E+00  4.195E+01  4.275E+00 -2.964E-01
   1   13    2     8     5    1.6296E+02 -2.8208E+00   1.6578E+02  0.000E+00  0.000E+00  0.000E+00  9.99790E+02  2.915E+00  4.227E+01  4.307E+00 -2.183E-01
   1   13    1     8     6    1.6578E+02 -2.1242E+00   1.6790E+02  0.000E+00  0.000E+00  0.000E+00  9.94807E+02  2.931E+00  4.251E+01  2.599E+00 -2.724E-01
   1    8    6     9     1    2.2469E+01  0.0000E+00   2.2469E+01  0.000E+00  0.000E+00  0.000E+00  1.08243E+03  3.683E+00  4.000E+00  0.000E+00  2.228E+00
   1    8    5     9     2    2.2469E+01  0.0000E+00   2.2469E+01  0.000E+00  0.000E+00  0.000E+00  1.08193E+03  3.683E+00  4.000E+00  0.000E+00  2.228E+00



 UBDSV3 SAVING "           GW ET" ON UNIT  61 AT TIME STEP  5, STRESS PERIOD   7
 UBDSV3 SAVING "    UZF RECHARGE" ON UNIT  61 AT TIME STEP  5, STRESS PERIOD   7
 UBDSV3 SAVING " SURFACE LEAKAGE" ON UNIT  61 AT TIME STEP  5, STRESS PERIOD   7
 UBDSV3 SAVING "       HORT+DUNN" ON UNIT  61 AT TIME STEP  5, STRESS PERIOD   7
 UBDSV3 SAVING "  STORAGE CHANGE" ON UNIT  61 AT TIME STEP  5, STRESS PERIOD   7


UNSATURATED ZONE PACKAGE VOLUMETRIC BUDGET FOR  TIME STEP     5 STRESS PERIOD    7
  ------------------------------------------------------------------------------



     CUMULATIVE VOLUMES      L**3       RATES FOR THIS TIME STEP      L**3/T
     ------------------                 ------------------------

           IN:                                      IN:
           ---                                      ---
        INFILTRATION =    50947973.1353          INFILTRATION =          23.3170

          OUT:                                     OUT:
          ----                                     ----
              UZF ET =    50694216.4085                UZF ET =          23.3175
        UZF RECHARGE =       73224.0000          UZF RECHARGE =       0.0000E+00

            IN - OUT =      180532.7269              IN - OUT =      -5.2786E-04

          STORAGE:                                 STORAGE:
          --------                                 --------
      STORAGE CHANGE =      180531.5026        STORAGE CHANGE =      -5.2865E-04

 PERCENT DISCREPANCY IS DIFFERENCE BETWEEN IN-OUT MINUS CHANGE IN STORAGE
 DIVIDED BY THE AVERAGE OF IN AND OUT TIMES 100

 PERCENT DISCREPANCY =           0.00     PERCENT DISCREPANCY =           0.00






 

        AG WELLS          PERIOD    7   STEP   5
 AG WELL      1   LAYER   1   ROW     6   COL     4   RATE     0.00000    
 AG WELL      2   LAYER   1   ROW     6   COL     5   RATE     0.00000    
 AG WELL      3   LAYER   1   ROW     7   COL     4   RATE     0.00000    
 AG WELL      4   LAYER   1   ROW     7   COL     5   RATE     0.00000    
 AG WELL      5   LAYER   1   ROW     8   COL     4   RATE     0.00000    
 AG WELL      6   LAYER   1   ROW     8   COL     5   RATE     0.00000    
 
 

   DIVERSION SEGMENTS     PERIOD    7   STEP   5
 SEGMENT      9   RATE     22.4690    
 
 

        SW IRRIGATION     PERIOD    7   STEP   5
 SEGMENT      9   ROW     6   COL     4   RATE     3.74491    
 SEGMENT      9   ROW     6   COL     5   RATE     3.74491    
 SEGMENT      9   ROW     7   COL     4   RATE     3.74491    
 SEGMENT      9   ROW     7   COL     5   RATE     3.74491    
 SEGMENT      9   ROW     8   COL     4   RATE     3.74491    
 SEGMENT      9   ROW     8   COL     5   RATE     3.74491    
 
 

        GW IRRIGATION     PERIOD    7   STEP   5
 AG WELL      1   ROW     6   COL     4   RATE     0.00000    
 AG WELL      2   ROW     6   COL     5   RATE     0.00000    
 AG WELL      3   ROW     7   COL     4   RATE     0.00000    
 AG WELL      4   ROW     7   COL     5   RATE     0.00000    
 AG WELL      5   ROW     8   COL     4   RATE     0.00000    
 AG WELL      6   ROW     8   COL     5   RATE     0.00000    
 
1
  VOLUMETRIC BUDGET FOR AGRICULTURAL FIELDS AT  END OF TIME STEP    5, STRESS PERIOD   7
  ------------------------------------------------------------------------------

     CUMULATIVE VOLUMES      L**3       RATES FOR THIS TIME STEP      L**3/T
     ------------------                 ------------------------

           IN:                                      IN:
           ---                                      ---
           AG WELLS      =      879324.2500             AG WELLS      =           0.0000
      DIVERSION SEGMENTS =    38492388.0000        DIVERSION SEGMENTS =          22.4690
           GW IRRIGATION =           0.0000             GW IRRIGATION =           0.0000
           SW IRRIGATION =           0.0000             SW IRRIGATION =           0.0000
        SYSTEM LOSSES GW =           0.0000          SYSTEM LOSSES GW =           0.0000
        SYSTEM LOSSES SW =           0.0000          SYSTEM LOSSES SW =           0.0000

                TOTAL IN =    39371712.0000                  TOTAL IN =          22.4690

          OUT:                                     OUT:
          ----                                     ----
           AG WELLS      =           0.0000             AG WELLS      =           0.0000
      DIVERSION SEGMENTS =           0.0000        DIVERSION SEGMENTS =           0.0000
           GW IRRIGATION =      879324.2500             GW IRRIGATION =           0.0000
           SW IRRIGATION =    38493164.0000             SW IRRIGATION =          22.4695
        SYSTEM LOSSES GW =           0.0000          SYSTEM LOSSES GW =           0.0000
        SYSTEM LOSSES SW =           0.0000          SYSTEM LOSSES SW =           0.0000

               TOTAL OUT =    39372488.0000                 TOTAL OUT =          22.4695

                IN - OUT =        -776.0000                  IN - OUT =      -4.4823E-04

     PERCENT DISCREPANCY =          -0.00         PERCENT DISCREPANCY =          -0.00



1
  VOLUMETRIC BUDGET FOR ENTIRE MODEL AT END OF TIME STEP    5, STRESS PERIOD   7
  ------------------------------------------------------------------------------

     CUMULATIVE VOLUMES      L**3       RATES FOR THIS TIME STEP      L**3/T
     ------------------                 ------------------------

           IN:                                      IN:
           ---                                      ---
             STORAGE     =     9567264.0000               STORAGE     =           1.4794
       CONSTANT HEAD     =           0.0000         CONSTANT HEAD     =           0.0000
     HEAD DEP BOUNDS     =     3936391.0000       HEAD DEP BOUNDS     =           0.2879
      STREAM LEAKAGE     =   161539472.0000        STREAM LEAKAGE     =          12.0650
        UZF RECHARGE     =       73223.9531          UZF RECHARGE     =           0.0000
               GW ET     =           0.0000                 GW ET     =           0.0000
     SURFACE LEAKAGE     =           0.0000       SURFACE LEAKAGE     =           0.0000
           AG WELLS      =           0.0000             AG WELLS      =           0.0000

                TOTAL IN =   175116336.0000                  TOTAL IN =          13.8322

          OUT:                                     OUT:
          ----                                     ----
             STORAGE     =    30825110.0000               STORAGE     =           2.2324
       CONSTANT HEAD     =           0.0000         CONSTANT HEAD     =           0.0000
     HEAD DEP BOUNDS     =     3945373.0000       HEAD DEP BOUNDS     =           0.2897
      STREAM LEAKAGE     =   139470000.0000        STREAM LEAKAGE     =          11.3100
        UZF RECHARGE     =           0.0000          UZF RECHARGE     =           0.0000
               GW ET     =           0.0000                 GW ET     =           0.0000
     SURFACE LEAKAGE     =           0.0000       SURFACE LEAKAGE     =           0.0000
           AG WELLS      =      879324.2500             AG WELLS      =           0.0000

               TOTAL OUT =   175119808.0000                 TOTAL OUT =          13.8321

                IN - OUT =       -3472.0000                  IN - OUT =       1.8883E-04

     PERCENT DISCREPANCY =          -0.00         PERCENT DISCREPANCY =           0.00






         TIME SUMMARY AT END OF TIME STEP    5 IN STRESS PERIOD    7
                    SECONDS     MINUTES      HOURS       DAYS        YEARS
                    -----------------------------------------------------------
   TIME STEP LENGTH  87667.      1461.1      24.352      1.0147     2.77799E-03
 STRESS PERIOD TIME 4.38333E+05  7305.6      121.76      5.0733     1.38899E-02
         TOTAL TIME 1.36747E+07 2.27912E+05  3798.5      158.27     0.43333    
1
 
 SOLVING FOR HEAD 
                                                   Max.-Head-Change                         Max.-Flux-Residual
  Residual-Control   Outer-Iter.   Inner-Iter.     Column Row Layer    Maximum-Head-Change  Column Row Layer    Maximum-Flux-Residual          L2-NORM 
          0                 1           2             4   13     1       0.3901465948E-02       4   13    1         0.2239564400E+00      0.5873786839E+00
          0                 2           2             7   13     1      -0.2338803576E-02       7   13    1        -0.1297214969E+00      0.1403348904E+00
          0                 3           2             4    7     1      -0.6972339440E-01       4    7    1        -0.3744545115E+01      0.9213457952E+01
          0                 4           2             4    7     1       0.7261694837E-01       4    8    1         0.4006998810E+01      0.9814387643E+01
          0                 5           2             4    7     1      -0.2925011689E-02       4    7    1        -0.1660962153E+00      0.4025887482E+00
          0                 6           1             4    7     1       0.3609328113E-04       4    7    1         0.2106504380E-02      0.5106658834E-02

    ------------------------------------------------
       NWT REQUIRED            6 OUTER ITERATIONS 
       AND A TOTAL OF         11 INNER ITERATIONS.
    ------------------------------------------------

 NO OUTPUT CONTROL FOR STRESS PERIOD    7   TIME STEP    6
 
 SOLVING FOR HEAD 
                                                   Max.-Head-Change                         Max.-Flux-Residual
  Residual-Control   Outer-Iter.   Inner-Iter.     Column Row Layer    Maximum-Head-Change  Column Row Layer    Maximum-Flux-Residual          L2-NORM 
          0                 1           2             4   13     1       0.4365756128E-02       4   13    1         0.2507351081E+00      0.6115951709E+00
          0                 2           2             7   13     1      -0.2340646120E-02       7   13    1        -0.1298220489E+00      0.1412662188E+00
          0                 3           2             4    7     1      -0.6972334304E-01       4    7    1        -0.3744542035E+01      0.9213576921E+01
          0                 4           2             4    7     1       0.7261744904E-01       4    8    1         0.4006981741E+01      0.9814408796E+01
          0                 5           2             4    7     1      -0.2925513602E-02       4    7    1        -0.1661257287E+00      0.4026059477E+00
          0                 6           1             4    7     1       0.3609947404E-04       4    7    1         0.2106878646E-02      0.5106670065E-02

    ------------------------------------------------
       NWT REQUIRED            6 OUTER ITERATIONS 
       AND A TOTAL OF         11 INNER ITERATIONS.
    ------------------------------------------------

 NO OUTPUT CONTROL FOR STRESS PERIOD    7   TIME STEP    7
 
 SOLVING FOR HEAD 
                                                   Max.-Head-Change                         Max.-Flux-Residual
  Residual-Control   Outer-Iter.   Inner-Iter.     Column Row Layer    Maximum-Head-Change  Column Row Layer    Maximum-Flux-Residual          L2-NORM 
          0                 1           2             4   13     1       0.4785702508E-02       4   13    1         0.2749482437E+00      0.6353206690E+00
          0                 2           2             7   13     1      -0.2342485104E-02       7   13    1        -0.1299225095E+00      0.1422199815E+00
          0                 3           2             4    7     1      -0.6972329310E-01       4    7    1        -0.3744539057E+01      0.9213686696E+01
          0                 4           2             4    7     1       0.7261794479E-01       4    8    1         0.4006982261E+01      0.9814436319E+01
          0                 5           2             4    7     1      -0.2926014774E-02       4    7    1        -0.1661552097E+00      0.4026332949E+00
          0                 6           1             4    7     1       0.3610565822E-04       4    7    1         0.2107252545E-02      0.5107029375E-02

    ------------------------------------------------
       NWT REQUIRED            6 OUTER ITERATIONS 
       AND A TOTAL OF         11 INNER ITERATIONS.
    ------------------------------------------------

 NO OUTPUT CONTROL FOR STRESS PERIOD    7   TIME STEP    8
 
 SOLVING FOR HEAD 
                                                   Max.-Head-Change                         Max.-Flux-Residual
  Residual-Control   Outer-Iter.   Inner-Iter.     Column Row Layer    Maximum-Head-Change  Column Row Layer    Maximum-Flux-Residual          L2-NORM 
          0                 1           2             4   13     1       0.5165608557E-02       4   13    1         0.2968454466E+00      0.6582139354E+00
          0                 2           2             7   13     1      -0.2344308568E-02       7   13    1        -0.1300221713E+00      0.1431758516E+00
          0                 3           2             4    7     1      -0.6972324865E-01       4    7    1        -0.3744536398E+01      0.9213788940E+01
          0                 4           2             4    7     1       0.7261843972E-01       4    8    1         0.4006982773E+01      0.9814463474E+01
          0                 5           2             4    7     1      -0.2926514861E-02       4    7    1        -0.1661846367E+00      0.4026603227E+00
          0                 6           1             4    7     1       0.3611182917E-04       4    7    1         0.2107625746E-02      0.5107374602E-02

    ------------------------------------------------
       NWT REQUIRED            6 OUTER ITERATIONS 
       AND A TOTAL OF         11 INNER ITERATIONS.
    ------------------------------------------------

 NO OUTPUT CONTROL FOR STRESS PERIOD    7   TIME STEP    9
 
 SOLVING FOR HEAD 
                                                   Max.-Head-Change                         Max.-Flux-Residual
  Residual-Control   Outer-Iter.   Inner-Iter.     Column Row Layer    Maximum-Head-Change  Column Row Layer    Maximum-Flux-Residual          L2-NORM 
          0                 1           2             4   13     1       0.5509404274E-02       4   13    1         0.3166544879E+00      0.6800828733E+00
          0                 2           2             7   13     1      -0.2346106448E-02       7   13    1        -0.1301205079E+00      0.1441212934E+00
          0                 3           2             4    7     1      -0.6972321380E-01       4    7    1        -0.3744534277E+01      0.9213884615E+01
          0                 4           2             4    7     1       0.7261893820E-01       4    8    1         0.4006983533E+01      0.9814490867E+01
          0                 5           2             4    7     1      -0.2927013808E-02       4    7    1        -0.1662140054E+00      0.4026870378E+00
          0                 6           1             4    7     1       0.3611798556E-04       4    7    1         0.2107998208E-02      0.5107710787E-02

    ------------------------------------------------
       NWT REQUIRED            6 OUTER ITERATIONS 
       AND A TOTAL OF         11 INNER ITERATIONS.
    ------------------------------------------------

 OUTPUT CONTROL FOR STRESS PERIOD    7   TIME STEP   10
    PRINT BUDGET
    SAVE BUDGET
 UBDSV1 SAVING "         STORAGE" ON UNIT 102 AT TIME STEP 10, STRESS PERIOD   7
 UBDSV2 SAVING "   CONSTANT HEAD" ON UNIT 102 AT TIME STEP 10, STRESS PERIOD   7
 UBDSV1 SAVING "FLOW RIGHT FACE " ON UNIT 102 AT TIME STEP 10, STRESS PERIOD   7
 UBDSV1 SAVING "FLOW FRONT FACE " ON UNIT 102 AT TIME STEP 10, STRESS PERIOD   7

  HEAD DEP BOUNDS   PERIOD    7   STEP    10
 BOUNDARY      1   LAYER   1   ROW    13   COL     1   RATE   -0.289229    
 BOUNDARY      2   LAYER   1   ROW    14   COL     9   RATE    0.287939    



 STREAM LISTING     PERIOD      7   STEP       10

 LAYER ROW COL. STREAM  RCH.  FLOW INTO     FLOW TO   FLOW OUT OF   OVRLND.     DIRECT     STREAM       STREAM     STREAM     STREAM   STREAMBED  STREAMBED
                SEG.NO.  NO.  STRM. RCH.    AQUIFER    STRM. RCH.    RUNOFF     PRECIP       ET          HEAD       DEPTH      WIDTH   CONDCTNC.   GRADIENT

   1    1    1     1     1    3.1125E+01  2.7165E-01   3.0853E+01  0.000E+00  0.000E+00  0.000E+00  1.09431E+03  1.259E+00  1.417E+01  6.378E-02  1.420E+00
   1    2    2     1     2    3.0853E+01  4.2045E-01   3.0433E+01  0.000E+00  0.000E+00  0.000E+00  1.08931E+03  1.256E+00  1.411E+01  9.879E-02  1.419E+00
   1    3    3     1     3    3.0433E+01  3.5834E-01   3.0075E+01  0.000E+00  0.000E+00  0.000E+00  1.08367E+03  1.252E+00  1.404E+01  8.427E-02  1.417E+00
   1    3    4     1     4    3.0075E+01  3.2976E-01   2.9745E+01  0.000E+00  0.000E+00  0.000E+00  1.07866E+03  1.249E+00  1.398E+01  7.761E-02  1.416E+00
   1    4    5     2     1    2.7745E+01  3.3390E-01   2.7411E+01  0.000E+00  0.000E+00  0.000E+00  1.07321E+03  1.281E+00  1.200E+01  7.800E-02  1.427E+00
   1    5    6     2     2    2.7411E+01  2.5635E-01   2.7155E+01  0.000E+00  0.000E+00  0.000E+00  1.06778E+03  1.273E+00  1.200E+01  6.000E-02  1.424E+00
   1    6    6     2     3    2.7155E+01  2.5592E-01   2.6899E+01  0.000E+00  0.000E+00  0.000E+00  1.06306E+03  1.265E+00  1.200E+01  6.000E-02  1.422E+00
   1    7    6     2     4    2.6899E+01  2.5549E-01   2.6643E+01  0.000E+00  0.000E+00  0.000E+00  1.05833E+03  1.258E+00  1.200E+01  6.000E-02  1.419E+00
   1    8    6     2     5    2.6643E+01  2.5506E-01   2.6388E+01  0.000E+00  0.000E+00  0.000E+00  1.05361E+03  1.251E+00  1.200E+01  6.000E-02  1.417E+00
   1    3    5     3     1    2.0000E+00  2.8252E-01   1.7175E+00  0.000E+00  0.000E+00  0.000E+00  1.07555E+03  1.909E+00  9.636E+00  7.227E-02  1.955E+00
   1    3    6     3     2    1.7175E+00  2.4905E-01   1.4684E+00  0.000E+00  0.000E+00  0.000E+00  1.07264E+03  1.727E+00  8.909E+00  6.682E-02  1.864E+00
   1    3    7     3     3    1.4684E+00  1.9718E-01   1.2712E+00  0.000E+00  0.000E+00  0.000E+00  1.06987E+03  1.555E+00  8.218E+00  5.547E-02  1.777E+00
   1    4    8     3     4    1.2712E+00  2.2567E-01   1.0456E+00  0.000E+00  0.000E+00  0.000E+00  1.06682E+03  1.364E+00  7.455E+00  6.709E-02  1.682E+00
   1    5    8     3     5    1.0456E+00  1.5790E-01   8.8768E-01  0.000E+00  0.000E+00  0.000E+00  1.06362E+03  1.164E+00  6.655E+00  4.991E-02  1.582E+00
   1    6    8     3     6    8.8768E-01  5.5980E-02   8.3170E-01  0.000E+00  0.000E+00  0.000E+00  1.06158E+03  1.036E+00  6.145E+00  1.844E-02  1.518E+00
   1    5   10     4     1    1.0000E+01  9.0919E-02   9.9091E+00  0.000E+00  0.000E+00  0.000E+00  1.07836E+03  6.368E-01  1.000E+01  2.500E-02  1.212E+00
   1    5    9     4     2    9.9091E+00  1.8158E-01   9.7275E+00  0.000E+00  0.000E+00  0.000E+00  1.07154E+03  6.315E-01  1.000E+01  5.000E-02  1.211E+00
   1    6    8     4     3    9.7275E+00  1.2689E-01   9.6006E+00  0.000E+00  0.000E+00  0.000E+00  1.06381E+03  6.256E-01  1.000E+01  3.500E-02  1.209E+00
   1    6    8     5     1    1.0432E+01  2.2686E-01   1.0205E+01  0.000E+00  0.000E+00  0.000E+00  1.05868E+03  6.790E-01  1.542E+01  6.166E-02  1.226E+00
   1    7    7     5     2    1.0205E+01  2.7894E-01   9.9265E+00  0.000E+00  0.000E+00  0.000E+00  1.05417E+03  6.732E-01  1.519E+01  7.594E-02  1.224E+00
   1    8    7     5     3    9.9265E+00  1.9221E-01   9.7343E+00  0.000E+00  0.000E+00  0.000E+00  1.04992E+03  6.676E-01  1.497E+01  5.241E-02  1.223E+00
   1    8    6     5     4    9.7343E+00  1.3577E-01   9.5985E+00  0.000E+00  0.000E+00  0.000E+00  1.04691E+03  6.637E-01  1.482E+01  3.706E-02  1.221E+00
   1    9    6     6     1    1.3518E+01  2.3040E-01   1.3287E+01  0.000E+00  0.000E+00  0.000E+00  1.04357E+03  8.400E-01  1.200E+01  6.000E-02  1.280E+00
   1   10    7     6     2    1.3287E+01  2.2988E-01   1.3057E+01  0.000E+00  0.000E+00  0.000E+00  1.03901E+03  8.313E-01  1.200E+01  6.000E-02  1.277E+00
   1   11    7     6     3    1.3057E+01  2.2936E-01   1.2828E+01  0.000E+00  0.000E+00  0.000E+00  1.03446E+03  8.226E-01  1.200E+01  6.000E-02  1.274E+00
   1   12    7     6     4    1.2828E+01  2.2883E-01   1.2599E+01  0.000E+00  0.000E+00  0.000E+00  1.02990E+03  8.138E-01  1.200E+01  6.000E-02  1.271E+00
   1   13    7     6     5    1.2599E+01 -3.3900E-02   1.2633E+01  0.000E+00  0.000E+00  0.000E+00  1.02672E+03  8.101E-01  1.200E+01  2.400E-01 -4.708E-02
   1   14    9     7     1    1.5000E+02  1.3678E+00   1.4863E+02  0.000E+00  0.000E+00  0.000E+00  1.03987E+03  2.288E+00  5.529E+01  5.593E-01  8.152E-01
   1   13    8     7     2    1.4863E+02  1.9153E+00   1.4672E+02  0.000E+00  0.000E+00  0.000E+00  1.03478E+03  2.279E+00  5.526E+01  6.148E-01  1.039E+00
   1   13    7     7     3    1.4672E+02  1.5795E+00   1.4514E+02  0.000E+00  0.000E+00  0.000E+00  1.02969E+03  2.270E+00  5.521E+01  5.584E-01  9.428E-01
   1   13    6     8     1    1.5777E+02  9.4797E-01   1.5682E+02  0.000E+00  0.000E+00  0.000E+00  1.02474E+03  2.867E+00  4.158E+01  4.237E-01  7.458E-01
   1   13    5     8     2    1.5682E+02  2.0186E-01   1.5662E+02  0.000E+00  0.000E+00  0.000E+00  1.01849E+03  2.864E+00  4.152E+01  4.231E-01  1.590E-01
   1   13    4     8     3    1.5662E+02 -2.4512E+00   1.5907E+02  0.000E+00  0.000E+00  0.000E+00  1.01225E+03  2.871E+00  4.163E+01  4.243E+00 -1.926E-01
   1   13    3     8     4    1.5907E+02 -3.7265E+00   1.6280E+02  0.000E+00  0.000E+00  0.000E+00  1.00602E+03  2.892E+00  4.194E+01  4.273E+00 -2.907E-01
   1   13    2     8     5    1.6280E+02 -2.7397E+00   1.6554E+02  0.000E+00  0.000E+00  0.000E+00  9.99789E+02  2.914E+00  4.225E+01  4.305E+00 -2.121E-01
   1   13    1     8     6    1.6554E+02 -2.0947E+00   1.6763E+02  0.000E+00  0.000E+00  0.000E+00  9.94805E+02  2.930E+00  4.248E+01  2.597E+00 -2.688E-01
   1    8    6     9     1    2.2469E+01  0.0000E+00   2.2469E+01  0.000E+00  0.000E+00  0.000E+00  1.08243E+03  3.683E+00  4.000E+00  0.000E+00  2.228E+00
   1    8    5     9     2    2.2469E+01  0.0000E+00   2.2469E+01  0.000E+00  0.000E+00  0.000E+00  1.08193E+03  3.683E+00  4.000E+00  0.000E+00  2.228E+00



 UBDSV3 SAVING "           GW ET" ON UNIT  61 AT TIME STEP 10, STRESS PERIOD   7
 UBDSV3 SAVING "    UZF RECHARGE" ON UNIT  61 AT TIME STEP 10, STRESS PERIOD   7
 UBDSV3 SAVING " SURFACE LEAKAGE" ON UNIT  61 AT TIME STEP 10, STRESS PERIOD   7
 UBDSV3 SAVING "       HORT+DUNN" ON UNIT  61 AT TIME STEP 10, STRESS PERIOD   7
 UBDSV3 SAVING "  STORAGE CHANGE" ON UNIT  61 AT TIME STEP 10, STRESS PERIOD   7


UNSATURATED ZONE PACKAGE VOLUMETRIC BUDGET FOR  TIME STEP    10 STRESS PERIOD    7
  ------------------------------------------------------------------------------



     CUMULATIVE VOLUMES      L**3       RATES FOR THIS TIME STEP      L**3/T
     ------------------                 ------------------------

           IN:                                      IN:
           ---                                      ---
        INFILTRATION =    61168581.6772          INFILTRATION =          23.3170

          OUT:                                     OUT:
          ----                                     ----
              UZF ET =    60915053.8879                UZF ET =          23.3175
        UZF RECHARGE =       73224.0000          UZF RECHARGE =       0.0000E+00

            IN - OUT =      180303.7894              IN - OUT =      -5.1641E-04

          STORAGE:                                 STORAGE:
          --------                                 --------
      STORAGE CHANGE =      180302.3954        STORAGE CHANGE =      -5.1799E-04

 PERCENT DISCREPANCY IS DIFFERENCE BETWEEN IN-OUT MINUS CHANGE IN STORAGE
 DIVIDED BY THE AVERAGE OF IN AND OUT TIMES 100

 PERCENT DISCREPANCY =           0.00     PERCENT DISCREPANCY =           0.00






 

        AG WELLS          PERIOD    7   STEP  10
 AG WELL      1   LAYER   1   ROW     6   COL     4   RATE     0.00000    
 AG WELL      2   LAYER   1   ROW     6   COL     5   RATE     0.00000    
 AG WELL      3   LAYER   1   ROW     7   COL     4   RATE     0.00000    
 AG WELL      4   LAYER   1   ROW     7   COL     5   RATE     0.00000    
 AG WELL      5   LAYER   1   ROW     8   COL     4   RATE     0.00000    
 AG WELL      6   LAYER   1   ROW     8   COL     5   RATE     0.00000    
 
 

   DIVERSION SEGMENTS     PERIOD    7   STEP  10
 SEGMENT      9   RATE     22.4690    
 
 

        SW IRRIGATION     PERIOD    7   STEP  10
 SEGMENT      9   ROW     6   COL     4   RATE     3.74491    
 SEGMENT      9   ROW     6   COL     5   RATE     3.74491    
 SEGMENT      9   ROW     7   COL     4   RATE     3.74491    
 SEGMENT      9   ROW     7   COL     5   RATE     3.74491    
 SEGMENT      9   ROW     8   COL     4   RATE     3.74491    
 SEGMENT      9   ROW     8   COL     5   RATE     3.74491    
 
 

        GW IRRIGATION     PERIOD    7   STEP  10
 AG WELL      1   ROW     6   COL     4   RATE     0.00000    
 AG WELL      2   ROW     6   COL     5   RATE     0.00000    
 AG WELL      3   ROW     7   COL     4   RATE     0.00000    
 AG WELL      4   ROW     7   COL     5   RATE     0.00000    
 AG WELL      5   ROW     8   COL     4   RATE     0.00000    
 AG WELL      6   ROW     8   COL     5   RATE     0.00000    
 
1
  VOLUMETRIC BUDGET FOR AGRICULTURAL FIELDS AT  END OF TIME STEP   10, STRESS PERIOD   7
  ------------------------------------------------------------------------------

     CUMULATIVE VOLUMES      L**3       RATES FOR THIS TIME STEP      L**3/T
     ------------------                 ------------------------

           IN:                                      IN:
           ---                                      ---
           AG WELLS      =      879324.2500             AG WELLS      =           0.0000
      DIVERSION SEGMENTS =    48341308.0000        DIVERSION SEGMENTS =          22.4690
           GW IRRIGATION =           0.0000             GW IRRIGATION =           0.0000
           SW IRRIGATION =           0.0000             SW IRRIGATION =           0.0000
        SYSTEM LOSSES GW =           0.0000          SYSTEM LOSSES GW =           0.0000
        SYSTEM LOSSES SW =           0.0000          SYSTEM LOSSES SW =           0.0000

                TOTAL IN =    49220632.0000                  TOTAL IN =          22.4690

          OUT:                                     OUT:
          ----                                     ----
           AG WELLS      =           0.0000             AG WELLS      =           0.0000
      DIVERSION SEGMENTS =           0.0000        DIVERSION SEGMENTS =           0.0000
           GW IRRIGATION =      879324.2500             GW IRRIGATION =           0.0000
           SW IRRIGATION =    48342284.0000             SW IRRIGATION =          22.4695
        SYSTEM LOSSES GW =           0.0000          SYSTEM LOSSES GW =           0.0000
        SYSTEM LOSSES SW =           0.0000          SYSTEM LOSSES SW =           0.0000

               TOTAL OUT =    49221608.0000                 TOTAL OUT =          22.4695

                IN - OUT =        -976.0000                  IN - OUT =      -4.5013E-04

     PERCENT DISCREPANCY =          -0.00         PERCENT DISCREPANCY =          -0.00



1
  VOLUMETRIC BUDGET FOR ENTIRE MODEL AT END OF TIME STEP   10, STRESS PERIOD   7
  ------------------------------------------------------------------------------

     CUMULATIVE VOLUMES      L**3       RATES FOR THIS TIME STEP      L**3/T
     ------------------                 ------------------------

           IN:                                      IN:
           ---                                      ---
             STORAGE     =    10128644.0000               STORAGE     =           1.1668
       CONSTANT HEAD     =           0.0000         CONSTANT HEAD     =           0.0000
     HEAD DEP BOUNDS     =     4062603.7500       HEAD DEP BOUNDS     =           0.2879
      STREAM LEAKAGE     =   166829088.0000        STREAM LEAKAGE     =          12.0693
        UZF RECHARGE     =       73223.9531          UZF RECHARGE     =           0.0000
               GW ET     =           0.0000                 GW ET     =           0.0000
     SURFACE LEAKAGE     =           0.0000       SURFACE LEAKAGE     =           0.0000
           AG WELLS      =           0.0000             AG WELLS      =           0.0000

                TOTAL IN =   181093552.0000                  TOTAL IN =          13.5240

          OUT:                                     OUT:
          ----                                     ----
             STORAGE     =    31790810.0000               STORAGE     =           2.1885
       CONSTANT HEAD     =           0.0000         CONSTANT HEAD     =           0.0000
     HEAD DEP BOUNDS     =     4072232.0000       HEAD DEP BOUNDS     =           0.2892
      STREAM LEAKAGE     =   144354560.0000        STREAM LEAKAGE     =          11.0461
        UZF RECHARGE     =           0.0000          UZF RECHARGE     =           0.0000
               GW ET     =           0.0000                 GW ET     =           0.0000
     SURFACE LEAKAGE     =           0.0000       SURFACE LEAKAGE     =           0.0000
           AG WELLS      =      879324.2500             AG WELLS      =           0.0000

               TOTAL OUT =   181096928.0000                 TOTAL OUT =          13.5238

                IN - OUT =       -3376.0000                  IN - OUT =       1.8883E-04

     PERCENT DISCREPANCY =          -0.00         PERCENT DISCREPANCY =           0.00






         TIME SUMMARY AT END OF TIME STEP   10 IN STRESS PERIOD    7
                    SECONDS     MINUTES      HOURS       DAYS        YEARS
                    -----------------------------------------------------------
   TIME STEP LENGTH  87667.      1461.1      24.352      1.0147     2.77799E-03
 STRESS PERIOD TIME 8.76667E+05  14611.      243.52      10.147     2.77799E-02
         TOTAL TIME 1.41131E+07 2.35218E+05  3920.3      163.35     0.44722    
1
 
 SOLVING FOR HEAD 
                                                   Max.-Head-Change                         Max.-Flux-Residual
  Residual-Control   Outer-Iter.   Inner-Iter.     Column Row Layer    Maximum-Head-Change  Column Row Layer    Maximum-Flux-Residual          L2-NORM 
          0                 1           2             4   13     1       0.5820690028E-02       4   13    1         0.3345841933E+00      0.7008107865E+00
          0                 2           2             7   13     1      -0.2347886150E-02       7   13    1        -0.1302179108E+00      0.1450473061E+00
          0                 3           2             4    7     1      -0.6972317754E-01       4    8    1        -0.3744534396E+01      0.9213972734E+01
          0                 4           2             4    7     1       0.7261943056E-01       4    8    1         0.4006984033E+01      0.9814517277E+01
          0                 5           2             4    7     1      -0.2927510917E-02       4    7    1        -0.1662432749E+00      0.4027134198E+00
          0                 6           1             4    7     1       0.3612411933E-04       4    7    1         0.2108369397E-02      0.5108038321E-02

    ------------------------------------------------
       NWT REQUIRED            6 OUTER ITERATIONS 
       AND A TOTAL OF         11 INNER ITERATIONS.
    ------------------------------------------------

 NO OUTPUT CONTROL FOR STRESS PERIOD    7   TIME STEP   11
 
 SOLVING FOR HEAD 
                                                   Max.-Head-Change                         Max.-Flux-Residual
  Residual-Control   Outer-Iter.   Inner-Iter.     Column Row Layer    Maximum-Head-Change  Column Row Layer    Maximum-Flux-Residual          L2-NORM 
          0                 1           2             4   13     1       0.6102657487E-02       4   13    1         0.3508194064E+00      0.7203588292E+00
          0                 2           2             7   13     1      -0.2349662918E-02       7   13    1        -0.1303152041E+00      0.1459457209E+00
          0                 3           2             4    7     1      -0.6972314768E-01       4    8    1        -0.3744537974E+01      0.9214054904E+01
          0                 4           2             4    7     1       0.7261992114E-01       4    8    1         0.4006984521E+01      0.9814543309E+01
          0                 5           2             4    7     1      -0.2928005924E-02       4    7    1        -0.1662724284E+00      0.4027394760E+00
          0                 6           1             4    7     1       0.3613022778E-04       4    7    1         0.2108739128E-02      0.5108366445E-02

    ------------------------------------------------
       NWT REQUIRED            6 OUTER ITERATIONS 
       AND A TOTAL OF         11 INNER ITERATIONS.
    ------------------------------------------------

 NO OUTPUT CONTROL FOR STRESS PERIOD    7   TIME STEP   12
 
 SOLVING FOR HEAD 
                                                   Max.-Head-Change                         Max.-Flux-Residual
  Residual-Control   Outer-Iter.   Inner-Iter.     Column Row Layer    Maximum-Head-Change  Column Row Layer    Maximum-Flux-Residual          L2-NORM 
          0                 1           2             4   13     1       0.6358144457E-02       4   13    1         0.3655245199E+00      0.7387086561E+00
          0                 2           2             7   13     1      -0.2351402547E-02       7   13    1        -0.1304105208E+00      0.1468114867E+00
          0                 3           2             4    7     1      -0.6972312647E-01       4    8    1        -0.3744541727E+01      0.9214132104E+01
          0                 4           2             4    7     1       0.7262041418E-01       4    8    1         0.4006985260E+01      0.9814569621E+01
          0                 5           2             4    7     1      -0.2928498734E-02       4    7    1        -0.1663014592E+00      0.4027652446E+00
          0                 6           1             4    7     1       0.3613630845E-04       4    7    1         0.2109107303E-02      0.5108686760E-02

    ------------------------------------------------
       NWT REQUIRED            6 OUTER ITERATIONS 
       AND A TOTAL OF         11 INNER ITERATIONS.
    ------------------------------------------------

 NO OUTPUT CONTROL FOR STRESS PERIOD    7   TIME STEP   13
 
 SOLVING FOR HEAD 
                                                   Max.-Head-Change                         Max.-Flux-Residual
  Residual-Control   Outer-Iter.   Inner-Iter.     Column Row Layer    Maximum-Head-Change  Column Row Layer    Maximum-Flux-Residual          L2-NORM 
          0                 1           2             4   13     1       0.6589651969E-02       4   13    1         0.3788445568E+00      0.7558814654E+00
          0                 2           2             7   13     1      -0.2353138737E-02       7   13    1        -0.1305056901E+00      0.1476389322E+00
          0                 3           2             4    7     1      -0.6972310294E-01       4    8    1        -0.3744545134E+01      0.9214204234E+01
          0                 4           2             4    7     1       0.7262090022E-01       4    7    1         0.4006989565E+01      0.9814594953E+01
          0                 5           2             4    7     1      -0.2928988858E-02       4    7    1        -0.1663303389E+00      0.4027906900E+00
          0                 6           1             4    7     1       0.3614235618E-04       4    7    1         0.2109473567E-02      0.5109017213E-02

    ------------------------------------------------
       NWT REQUIRED            6 OUTER ITERATIONS 
       AND A TOTAL OF         11 INNER ITERATIONS.
    ------------------------------------------------

 NO OUTPUT CONTROL FOR STRESS PERIOD    7   TIME STEP   14
 
 SOLVING FOR HEAD 
                                                   Max.-Head-Change                         Max.-Flux-Residual
  Residual-Control   Outer-Iter.   Inner-Iter.     Column Row Layer    Maximum-Head-Change  Column Row Layer    Maximum-Flux-Residual          L2-NORM 
          0                 1           2             4   13     1       0.6799639629E-02       4   13    1         0.3909218813E+00      0.7719167415E+00
          0                 2           2             7   13     1      -0.2354834709E-02       7   13    1        -0.1305986801E+00      0.1484343300E+00
          0                 3           2             4    7     1      -0.6972308497E-01       4    8    1        -0.3744548433E+01      0.9214269837E+01
          0                 4           2             4    7     1       0.7258140477E-01       4    7    1         0.4006994845E+01      0.9814610803E+01
          0                 5           2             4    7     1      -0.2888990181E-02       4    6    1        -0.1645295702E+00      0.4018108058E+00
          0                 6           1             4    7     1       0.3564880618E-04       4    6    1         0.2086636798E-02      0.5096625467E-02

    ------------------------------------------------
       NWT REQUIRED            6 OUTER ITERATIONS 
       AND A TOTAL OF         11 INNER ITERATIONS.
    ------------------------------------------------

 OUTPUT CONTROL FOR STRESS PERIOD    7   TIME STEP   15
    PRINT BUDGET
    SAVE BUDGET
 UBDSV1 SAVING "         STORAGE" ON UNIT 102 AT TIME STEP 15, STRESS PERIOD   7
 UBDSV2 SAVING "   CONSTANT HEAD" ON UNIT 102 AT TIME STEP 15, STRESS PERIOD   7
 UBDSV1 SAVING "FLOW RIGHT FACE " ON UNIT 102 AT TIME STEP 15, STRESS PERIOD   7
 UBDSV1 SAVING "FLOW FRONT FACE " ON UNIT 102 AT TIME STEP 15, STRESS PERIOD   7

  HEAD DEP BOUNDS   PERIOD    7   STEP    15
 BOUNDARY      1   LAYER   1   ROW    13   COL     1   RATE   -0.288837    
 BOUNDARY      2   LAYER   1   ROW    14   COL     9   RATE    0.287942    



 STREAM LISTING     PERIOD      7   STEP       15

 LAYER ROW COL. STREAM  RCH.  FLOW INTO     FLOW TO   FLOW OUT OF   OVRLND.     DIRECT     STREAM       STREAM     STREAM     STREAM   STREAMBED  STREAMBED
                SEG.NO.  NO.  STRM. RCH.    AQUIFER    STRM. RCH.    RUNOFF     PRECIP       ET          HEAD       DEPTH      WIDTH   CONDCTNC.   GRADIENT

   1    1    1     1     1    3.1125E+01  2.7165E-01   3.0853E+01  0.000E+00  0.000E+00  0.000E+00  1.09431E+03  1.259E+00  1.417E+01  6.378E-02  1.420E+00
   1    2    2     1     2    3.0853E+01  4.2045E-01   3.0433E+01  0.000E+00  0.000E+00  0.000E+00  1.08931E+03  1.256E+00  1.411E+01  9.879E-02  1.419E+00
   1    3    3     1     3    3.0433E+01  3.5834E-01   3.0075E+01  0.000E+00  0.000E+00  0.000E+00  1.08367E+03  1.252E+00  1.404E+01  8.427E-02  1.417E+00
   1    3    4     1     4    3.0075E+01  3.2976E-01   2.9745E+01  0.000E+00  0.000E+00  0.000E+00  1.07866E+03  1.249E+00  1.398E+01  7.761E-02  1.416E+00
   1    4    5     2     1    2.7745E+01  3.3390E-01   2.7411E+01  0.000E+00  0.000E+00  0.000E+00  1.07321E+03  1.281E+00  1.200E+01  7.800E-02  1.427E+00
   1    5    6     2     2    2.7411E+01  2.5635E-01   2.7155E+01  0.000E+00  0.000E+00  0.000E+00  1.06778E+03  1.273E+00  1.200E+01  6.000E-02  1.424E+00
   1    6    6     2     3    2.7155E+01  2.5592E-01   2.6899E+01  0.000E+00  0.000E+00  0.000E+00  1.06306E+03  1.265E+00  1.200E+01  6.000E-02  1.422E+00
   1    7    6     2     4    2.6899E+01  2.5549E-01   2.6643E+01  0.000E+00  0.000E+00  0.000E+00  1.05833E+03  1.258E+00  1.200E+01  6.000E-02  1.419E+00
   1    8    6     2     5    2.6643E+01  2.5506E-01   2.6388E+01  0.000E+00  0.000E+00  0.000E+00  1.05361E+03  1.251E+00  1.200E+01  6.000E-02  1.417E+00
   1    3    5     3     1    2.0000E+00  2.8252E-01   1.7175E+00  0.000E+00  0.000E+00  0.000E+00  1.07555E+03  1.909E+00  9.636E+00  7.227E-02  1.955E+00
   1    3    6     3     2    1.7175E+00  2.4905E-01   1.4684E+00  0.000E+00  0.000E+00  0.000E+00  1.07264E+03  1.727E+00  8.909E+00  6.682E-02  1.864E+00
   1    3    7     3     3    1.4684E+00  1.9718E-01   1.2712E+00  0.000E+00  0.000E+00  0.000E+00  1.06987E+03  1.555E+00  8.218E+00  5.547E-02  1.777E+00
   1    4    8     3     4    1.2712E+00  2.2567E-01   1.0456E+00  0.000E+00  0.000E+00  0.000E+00  1.06682E+03  1.364E+00  7.455E+00  6.709E-02  1.682E+00
   1    5    8     3     5    1.0456E+00  1.5790E-01   8.8768E-01  0.000E+00  0.000E+00  0.000E+00  1.06362E+03  1.164E+00  6.655E+00  4.991E-02  1.582E+00
   1    6    8     3     6    8.8768E-01  5.5980E-02   8.3170E-01  0.000E+00  0.000E+00  0.000E+00  1.06158E+03  1.036E+00  6.145E+00  1.844E-02  1.518E+00
   1    5   10     4     1    1.0000E+01  9.0919E-02   9.9091E+00  0.000E+00  0.000E+00  0.000E+00  1.07836E+03  6.368E-01  1.000E+01  2.500E-02  1.212E+00
   1    5    9     4     2    9.9091E+00  1.8158E-01   9.7275E+00  0.000E+00  0.000E+00  0.000E+00  1.07154E+03  6.315E-01  1.000E+01  5.000E-02  1.211E+00
   1    6    8     4     3    9.7275E+00  1.2689E-01   9.6006E+00  0.000E+00  0.000E+00  0.000E+00  1.06381E+03  6.256E-01  1.000E+01  3.500E-02  1.209E+00
   1    6    8     5     1    1.0432E+01  2.2686E-01   1.0205E+01  0.000E+00  0.000E+00  0.000E+00  1.05868E+03  6.790E-01  1.542E+01  6.166E-02  1.226E+00
   1    7    7     5     2    1.0205E+01  2.7894E-01   9.9265E+00  0.000E+00  0.000E+00  0.000E+00  1.05417E+03  6.732E-01  1.519E+01  7.594E-02  1.224E+00
   1    8    7     5     3    9.9265E+00  1.9221E-01   9.7343E+00  0.000E+00  0.000E+00  0.000E+00  1.04992E+03  6.676E-01  1.497E+01  5.241E-02  1.223E+00
   1    8    6     5     4    9.7343E+00  1.3577E-01   9.5985E+00  0.000E+00  0.000E+00  0.000E+00  1.04691E+03  6.637E-01  1.482E+01  3.706E-02  1.221E+00
   1    9    6     6     1    1.3518E+01  2.3040E-01   1.3287E+01  0.000E+00  0.000E+00  0.000E+00  1.04357E+03  8.400E-01  1.200E+01  6.000E-02  1.280E+00
   1   10    7     6     2    1.3287E+01  2.2988E-01   1.3057E+01  0.000E+00  0.000E+00  0.000E+00  1.03901E+03  8.313E-01  1.200E+01  6.000E-02  1.277E+00
   1   11    7     6     3    1.3057E+01  2.2936E-01   1.2828E+01  0.000E+00  0.000E+00  0.000E+00  1.03446E+03  8.226E-01  1.200E+01  6.000E-02  1.274E+00
   1   12    7     6     4    1.2828E+01  2.2883E-01   1.2599E+01  0.000E+00  0.000E+00  0.000E+00  1.02990E+03  8.138E-01  1.200E+01  6.000E-02  1.271E+00
   1   13    7     6     5    1.2599E+01 -3.3528E-02   1.2633E+01  0.000E+00  0.000E+00  0.000E+00  1.02672E+03  8.101E-01  1.200E+01  2.400E-01 -4.657E-02
   1   14    9     7     1    1.5000E+02  1.3679E+00   1.4863E+02  0.000E+00  0.000E+00  0.000E+00  1.03987E+03  2.288E+00  5.529E+01  5.593E-01  8.152E-01
   1   13    8     7     2    1.4863E+02  1.9152E+00   1.4672E+02  0.000E+00  0.000E+00  0.000E+00  1.03478E+03  2.279E+00  5.526E+01  6.148E-01  1.038E+00
   1   13    7     7     3    1.4672E+02  1.5803E+00   1.4514E+02  0.000E+00  0.000E+00  0.000E+00  1.02969E+03  2.270E+00  5.521E+01  5.584E-01  9.434E-01
   1   13    6     8     1    1.5777E+02  9.4957E-01   1.5682E+02  0.000E+00  0.000E+00  0.000E+00  1.02474E+03  2.867E+00  4.158E+01  4.237E-01  7.471E-01
   1   13    5     8     2    1.5682E+02  2.0353E-01   1.5662E+02  0.000E+00  0.000E+00  0.000E+00  1.01849E+03  2.864E+00  4.152E+01  4.231E-01  1.603E-01
   1   13    4     8     3    1.5662E+02 -2.4017E+00   1.5902E+02  0.000E+00  0.000E+00  0.000E+00  1.01225E+03  2.871E+00  4.163E+01  4.242E+00 -1.887E-01
   1   13    3     8     4    1.5902E+02 -3.6769E+00   1.6269E+02  0.000E+00  0.000E+00  0.000E+00  1.00602E+03  2.892E+00  4.193E+01  4.273E+00 -2.869E-01
   1   13    2     8     5    1.6269E+02 -2.6838E+00   1.6538E+02  0.000E+00  0.000E+00  0.000E+00  9.99788E+02  2.913E+00  4.224E+01  4.304E+00 -2.078E-01
   1   13    1     8     6    1.6538E+02 -2.0701E+00   1.6745E+02  0.000E+00  0.000E+00  0.000E+00  9.94804E+02  2.929E+00  4.247E+01  2.596E+00 -2.658E-01
   1    8    6     9     1    2.2469E+01  0.0000E+00   2.2469E+01  0.000E+00  0.000E+00  0.000E+00  1.08243E+03  3.683E+00  4.000E+00  0.000E+00  2.228E+00
   1    8    5     9     2    2.2469E+01  0.0000E+00   2.2469E+01  0.000E+00  0.000E+00  0.000E+00  1.08193E+03  3.683E+00  4.000E+00  0.000E+00  2.228E+00



 UBDSV3 SAVING "           GW ET" ON UNIT  61 AT TIME STEP 15, STRESS PERIOD   7
 UBDSV3 SAVING "    UZF RECHARGE" ON UNIT  61 AT TIME STEP 15, STRESS PERIOD   7
 UBDSV3 SAVING " SURFACE LEAKAGE" ON UNIT  61 AT TIME STEP 15, STRESS PERIOD   7
 UBDSV3 SAVING "       HORT+DUNN" ON UNIT  61 AT TIME STEP 15, STRESS PERIOD   7
 UBDSV3 SAVING "  STORAGE CHANGE" ON UNIT  61 AT TIME STEP 15, STRESS PERIOD   7


UNSATURATED ZONE PACKAGE VOLUMETRIC BUDGET FOR  TIME STEP    15 STRESS PERIOD    7
  ------------------------------------------------------------------------------



     CUMULATIVE VOLUMES      L**3       RATES FOR THIS TIME STEP      L**3/T
     ------------------                 ------------------------

           IN:                                      IN:
           ---                                      ---
        INFILTRATION =    71389194.1566          INFILTRATION =          23.3170

          OUT:                                     OUT:
          ----                                     ----
              UZF ET =    71135891.3673                UZF ET =          23.3175
        UZF RECHARGE =       73224.0000          UZF RECHARGE =       0.0000E+00

            IN - OUT =      180078.7894              IN - OUT =      -5.0783E-04

          STORAGE:                                 STORAGE:
          --------                                 --------
      STORAGE CHANGE =      180077.2139        STORAGE CHANGE =      -5.0947E-04

 PERCENT DISCREPANCY IS DIFFERENCE BETWEEN IN-OUT MINUS CHANGE IN STORAGE
 DIVIDED BY THE AVERAGE OF IN AND OUT TIMES 100

 PERCENT DISCREPANCY =           0.00     PERCENT DISCREPANCY =           0.00






 

        AG WELLS          PERIOD    7   STEP  15
 AG WELL      1   LAYER   1   ROW     6   COL     4   RATE     0.00000    
 AG WELL      2   LAYER   1   ROW     6   COL     5   RATE     0.00000    
 AG WELL      3   LAYER   1   ROW     7   COL     4   RATE     0.00000    
 AG WELL      4   LAYER   1   ROW     7   COL     5   RATE     0.00000    
 AG WELL      5   LAYER   1   ROW     8   COL     4   RATE     0.00000    
 AG WELL      6   LAYER   1   ROW     8   COL     5   RATE     0.00000    
 
 

   DIVERSION SEGMENTS     PERIOD    7   STEP  15
 SEGMENT      9   RATE     22.4690    
 
 

        SW IRRIGATION     PERIOD    7   STEP  15
 SEGMENT      9   ROW     6   COL     4   RATE     3.74492    
 SEGMENT      9   ROW     6   COL     5   RATE     3.74492    
 SEGMENT      9   ROW     7   COL     4   RATE     3.74492    
 SEGMENT      9   ROW     7   COL     5   RATE     3.74492    
 SEGMENT      9   ROW     8   COL     4   RATE     3.74492    
 SEGMENT      9   ROW     8   COL     5   RATE     3.74492    
 
 

        GW IRRIGATION     PERIOD    7   STEP  15
 AG WELL      1   ROW     6   COL     4   RATE     0.00000    
 AG WELL      2   ROW     6   COL     5   RATE     0.00000    
 AG WELL      3   ROW     7   COL     4   RATE     0.00000    
 AG WELL      4   ROW     7   COL     5   RATE     0.00000    
 AG WELL      5   ROW     8   COL     4   RATE     0.00000    
 AG WELL      6   ROW     8   COL     5   RATE     0.00000    
 
1
  VOLUMETRIC BUDGET FOR AGRICULTURAL FIELDS AT  END OF TIME STEP   15, STRESS PERIOD   7
  ------------------------------------------------------------------------------

     CUMULATIVE VOLUMES      L**3       RATES FOR THIS TIME STEP      L**3/T
     ------------------                 ------------------------

           IN:                                      IN:
           ---                                      ---
           AG WELLS      =      879324.2500             AG WELLS      =           0.0000
      DIVERSION SEGMENTS =    58190232.0000        DIVERSION SEGMENTS =          22.4690
           GW IRRIGATION =           0.0000             GW IRRIGATION =           0.0000
           SW IRRIGATION =           0.0000             SW IRRIGATION =           0.0000
        SYSTEM LOSSES GW =           0.0000          SYSTEM LOSSES GW =           0.0000
        SYSTEM LOSSES SW =           0.0000          SYSTEM LOSSES SW =           0.0000

                TOTAL IN =    59069556.0000                  TOTAL IN =          22.4690

          OUT:                                     OUT:
          ----                                     ----
           AG WELLS      =           0.0000             AG WELLS      =           0.0000
      DIVERSION SEGMENTS =           0.0000        DIVERSION SEGMENTS =           0.0000
           GW IRRIGATION =      879324.2500             GW IRRIGATION =           0.0000
           SW IRRIGATION =    58191404.0000             SW IRRIGATION =          22.4695
        SYSTEM LOSSES GW =           0.0000          SYSTEM LOSSES GW =           0.0000
        SYSTEM LOSSES SW =           0.0000          SYSTEM LOSSES SW =           0.0000

               TOTAL OUT =    59070728.0000                 TOTAL OUT =          22.4695

                IN - OUT =       -1172.0000                  IN - OUT =      -4.4823E-04

     PERCENT DISCREPANCY =          -0.00         PERCENT DISCREPANCY =          -0.00



1
  VOLUMETRIC BUDGET FOR ENTIRE MODEL AT END OF TIME STEP   15, STRESS PERIOD   7
  ------------------------------------------------------------------------------

     CUMULATIVE VOLUMES      L**3       RATES FOR THIS TIME STEP      L**3/T
     ------------------                 ------------------------

           IN:                                      IN:
           ---                                      ---
             STORAGE     =    10582908.0000               STORAGE     =           0.9591
       CONSTANT HEAD     =           0.0000         CONSTANT HEAD     =           0.0000
     HEAD DEP BOUNDS     =     4188818.0000       HEAD DEP BOUNDS     =           0.2879
      STREAM LEAKAGE     =   172120544.0000        STREAM LEAKAGE     =          12.0734
        UZF RECHARGE     =       73223.9531          UZF RECHARGE     =           0.0000
               GW ET     =           0.0000                 GW ET     =           0.0000
     SURFACE LEAKAGE     =           0.0000       SURFACE LEAKAGE     =           0.0000
           AG WELLS      =           0.0000             AG WELLS      =           0.0000

                TOTAL IN =   186965488.0000                  TOTAL IN =          13.3204

          OUT:                                     OUT:
          ----                                     ----
             STORAGE     =    32743856.0000               STORAGE     =           2.1654
       CONSTANT HEAD     =           0.0000         CONSTANT HEAD     =           0.0000
     HEAD DEP BOUNDS     =     4198905.0000       HEAD DEP BOUNDS     =           0.2888
      STREAM LEAKAGE     =   149146688.0000        STREAM LEAKAGE     =          10.8660
        UZF RECHARGE     =           0.0000          UZF RECHARGE     =           0.0000
               GW ET     =           0.0000                 GW ET     =           0.0000
     SURFACE LEAKAGE     =           0.0000       SURFACE LEAKAGE     =           0.0000
           AG WELLS      =      879324.2500             AG WELLS      =           0.0000

               TOTAL OUT =   186968768.0000                 TOTAL OUT =          13.3202

                IN - OUT =       -3280.0000                  IN - OUT =       1.8978E-04

     PERCENT DISCREPANCY =          -0.00         PERCENT DISCREPANCY =           0.00






         TIME SUMMARY AT END OF TIME STEP   15 IN STRESS PERIOD    7
                    SECONDS     MINUTES      HOURS       DAYS        YEARS
                    -----------------------------------------------------------
   TIME STEP LENGTH  87667.      1461.1      24.352      1.0147     2.77799E-03
 STRESS PERIOD TIME 1.31500E+06  21917.      365.28      15.220     4.16698E-02
         TOTAL TIME 1.45514E+07 2.42524E+05  4042.1      168.42     0.46111    
1
 
 SOLVING FOR HEAD 
                                                   Max.-Head-Change                         Max.-Flux-Residual
  Residual-Control   Outer-Iter.   Inner-Iter.     Column Row Layer    Maximum-Head-Change  Column Row Layer    Maximum-Flux-Residual          L2-NORM 
          0                 1           2             4   13     1       0.6990144744E-02       4   13    1         0.4018744286E+00      0.7868663483E+00
          0                 2           2             7   13     1      -0.2356522370E-02       7   13    1        -0.1306912539E+00      0.1491891622E+00
          0                 3           2             4    7     1      -0.6972306412E-01       4    8    1        -0.3744551392E+01      0.9214331157E+01
          0                 4           2             4    7     1       0.7258140990E-01       4    7    1         0.4006994757E+01      0.9814623659E+01
          0                 5           2             4    7     1      -0.2888997449E-02       4    6    1        -0.1645607624E+00      0.4018236297E+00
          0                 6           1             4    7     1       0.3564889624E-04       4    6    1         0.2087032392E-02      0.5096779475E-02

    ------------------------------------------------
       NWT REQUIRED            6 OUTER ITERATIONS 
       AND A TOTAL OF         11 INNER ITERATIONS.
    ------------------------------------------------

 NO OUTPUT CONTROL FOR STRESS PERIOD    7   TIME STEP   16
 
 SOLVING FOR HEAD 
                                                   Max.-Head-Change                         Max.-Flux-Residual
  Residual-Control   Outer-Iter.   Inner-Iter.     Column Row Layer    Maximum-Head-Change  Column Row Layer    Maximum-Flux-Residual          L2-NORM 
          0                 1           2             4   13     1       0.7163051680E-02       4   13    1         0.4118112405E+00      0.8007731788E+00
          0                 2           2             7   13     1      -0.2358173469E-02       7   13    1        -0.1307818466E+00      0.1499047237E+00
          0                 3           2             4    7     1      -0.6972305723E-01       4    8    1        -0.3744554771E+01      0.9214389594E+01
          0                 4           2             4    7     1       0.7258142438E-01       4    7    1         0.4006995199E+01      0.9814637525E+01
          0                 5           2             4    7     1      -0.2889004961E-02       4    6    1        -0.1645914078E+00      0.4018362864E+00
          0                 6           1             4    7     1       0.3564898854E-04       4    6    1         0.2087421038E-02      0.5096944854E-02

    ------------------------------------------------
       NWT REQUIRED            6 OUTER ITERATIONS 
       AND A TOTAL OF         11 INNER ITERATIONS.
    ------------------------------------------------

 NO OUTPUT CONTROL FOR STRESS PERIOD    7   TIME STEP   17
 
 SOLVING FOR HEAD 
                                                   Max.-Head-Change                         Max.-Flux-Residual
  Residual-Control   Outer-Iter.   Inner-Iter.     Column Row Layer    Maximum-Head-Change  Column Row Layer    Maximum-Flux-Residual          L2-NORM 
          0                 1           2             4   13     1       0.7319992435E-02       4   13    1         0.4208269629E+00      0.8136989298E+00
          0                 2           2             7   13     1      -0.2359812238E-02       7   13    1        -0.1308718179E+00      0.1505813541E+00
          0                 3           2             4    7     1      -0.6972304701E-01       4    8    1        -0.3744557767E+01      0.9214443730E+01
          0                 4           2             4    7     1       0.7258143416E-01       4    7    1         0.4006995391E+01      0.9814650512E+01
          0                 5           2             4    7     1      -0.2889012165E-02       4    6    1        -0.1646215042E+00      0.4018486892E+00
          0                 6           1             4    7     1       0.3564907748E-04       4    6    1         0.2087802709E-02      0.5097092611E-02

    ------------------------------------------------
       NWT REQUIRED            6 OUTER ITERATIONS 
       AND A TOTAL OF         11 INNER ITERATIONS.
    ------------------------------------------------

 NO OUTPUT CONTROL FOR STRESS PERIOD    7   TIME STEP   18
 
 SOLVING FOR HEAD 
                                                   Max.-Head-Change                         Max.-Flux-Residual
  Residual-Control   Outer-Iter.   Inner-Iter.     Column Row Layer    Maximum-Head-Change  Column Row Layer    Maximum-Flux-Residual          L2-NORM 
          0                 1           2             4   13     1       0.7462524757E-02       4   13    1         0.4290115121E+00      0.8257031213E+00
          0                 2           2             7   13     1      -0.2361415874E-02       7   13    1        -0.1309598462E+00      0.1512209448E+00
          0                 3           2             4    7     1      -0.6972304137E-01       4    8    1        -0.3744560714E+01      0.9214494396E+01
          0                 4           2             4    7     1       0.7258144404E-01       4    7    1         0.4006995601E+01      0.9814663259E+01
          0                 5           2             4    7     1      -0.2889019249E-02       4    6    1        -0.1646510581E+00      0.4018608791E+00
          0                 6           1             4    7     1       0.3564916441E-04       4    6    1         0.2088177528E-02      0.5097249903E-02

    ------------------------------------------------
       NWT REQUIRED            6 OUTER ITERATIONS 
       AND A TOTAL OF         11 INNER ITERATIONS.
    ------------------------------------------------

 NO OUTPUT CONTROL FOR STRESS PERIOD    7   TIME STEP   19
 
 SOLVING FOR HEAD 
                                                   Max.-Head-Change                         Max.-Flux-Residual
  Residual-Control   Outer-Iter.   Inner-Iter.     Column Row Layer    Maximum-Head-Change  Column Row Layer    Maximum-Flux-Residual          L2-NORM 
          0                 1           2             4   13     1       0.7592137563E-02       4   13    1         0.4364511174E+00      0.8368507112E+00
          0                 2           2             7   13     1      -0.2363007498E-02       7   13    1        -0.1310472628E+00      0.1518248524E+00
          0                 3           2             4    7     1      -0.6972304086E-01       4    8    1        -0.3744563761E+01      0.9214541997E+01
          0                 4           2             4    7     1       0.7258145845E-01       4    7    1         0.4006990845E+01      0.9814674243E+01
          0                 5           2             4    7     1      -0.2889026387E-02       4    6    1        -0.1646801229E+00      0.4018702574E+00
          0                 6           1             4    7     1       0.3564925357E-04       4    6    1         0.2088546124E-02      0.5097336343E-02

    ------------------------------------------------
       NWT REQUIRED            6 OUTER ITERATIONS 
       AND A TOTAL OF         11 INNER ITERATIONS.
    ------------------------------------------------

 NO OUTPUT CONTROL FOR STRESS PERIOD    7   TIME STEP   20
 
 SOLVING FOR HEAD 
                                                   Max.-Head-Change                         Max.-Flux-Residual
  Residual-Control   Outer-Iter.   Inner-Iter.     Column Row Layer    Maximum-Head-Change  Column Row Layer    Maximum-Flux-Residual          L2-NORM 
          0                 1           2             4   13     1       0.7709853360E-02       4   13    1         0.4432048906E+00      0.8471842806E+00
          0                 2           2             7   13     1      -0.2364575115E-02       7   13    1        -0.1311333804E+00      0.1523925372E+00
          0                 3           2             4    7     1      -0.6972304012E-01       4    8    1        -0.3744566525E+01      0.9214586302E+01
          0                 4           2             4    7     1       0.7258146833E-01       4    7    1         0.4006991076E+01      0.9814686534E+01
          0                 5           2             4    7     1      -0.2889033248E-02       4    6    1        -0.1647086875E+00      0.4018820435E+00
          0                 6           1             4    7     1       0.3564933826E-04       4    6    1         0.2088908391E-02      0.5097477607E-02

    ------------------------------------------------
       NWT REQUIRED            6 OUTER ITERATIONS 
       AND A TOTAL OF         11 INNER ITERATIONS.
    ------------------------------------------------

 NO OUTPUT CONTROL FOR STRESS PERIOD    7   TIME STEP   21
 
 SOLVING FOR HEAD 
                                                   Max.-Head-Change                         Max.-Flux-Residual
  Residual-Control   Outer-Iter.   Inner-Iter.     Column Row Layer    Maximum-Head-Change  Column Row Layer    Maximum-Flux-Residual          L2-NORM 
          0                 1           2             4   13     1       0.7817041949E-02       4   13    1         0.4493519256E+00      0.8567782822E+00
          0                 2           2             7   13     1      -0.2366119900E-02       7   13    1        -0.1312182588E+00      0.1529291052E+00
          0                 3           2             4    7     1      -0.6972303971E-01       4    8    1        -0.3744569203E+01      0.9214627684E+01
          0                 4           2             4    7     1       0.7258147812E-01       4    7    1         0.4006991309E+01      0.9814698606E+01
          0                 5           2             4    7     1      -0.2889039994E-02       4    6    1        -0.1647367641E+00      0.4018936234E+00
          0                 6           1             4    7     1       0.3564942160E-04       4    6    1         0.2089266052E-02      0.5097616441E-02

    ------------------------------------------------
       NWT REQUIRED            6 OUTER ITERATIONS 
       AND A TOTAL OF         11 INNER ITERATIONS.
    ------------------------------------------------

 NO OUTPUT CONTROL FOR STRESS PERIOD    7   TIME STEP   22
 
 SOLVING FOR HEAD 
                                                   Max.-Head-Change                         Max.-Flux-Residual
  Residual-Control   Outer-Iter.   Inner-Iter.     Column Row Layer    Maximum-Head-Change  Column Row Layer    Maximum-Flux-Residual          L2-NORM 
          0                 1           2             4   13     1       0.7914607958E-02       4   13    1         0.4549446964E+00      0.8656677046E+00
          0                 2           2             7   13     1      -0.2367620462E-02       7   13    1        -0.1313007159E+00      0.1534333556E+00
          0                 3           2             4    7     1      -0.6972304760E-01       4    8    1        -0.3744572035E+01      0.9214666911E+01
          0                 4           2             4    7     1       0.7258149261E-01       4    7    1         0.4006991812E+01      0.9814711088E+01
          0                 5           2             4    7     1      -0.2889046821E-02       4    6    1        -0.1647643801E+00      0.4019050426E+00
          0                 6           1             4    7     1       0.3564950561E-04       4    6    1         0.2089623788E-02      0.5097760929E-02

    ------------------------------------------------
       NWT REQUIRED            6 OUTER ITERATIONS 
       AND A TOTAL OF         11 INNER ITERATIONS.
    ------------------------------------------------

 NO OUTPUT CONTROL FOR STRESS PERIOD    7   TIME STEP   23
 
 SOLVING FOR HEAD 
                                                   Max.-Head-Change                         Max.-Flux-Residual
  Residual-Control   Outer-Iter.   Inner-Iter.     Column Row Layer    Maximum-Head-Change  Column Row Layer    Maximum-Flux-Residual          L2-NORM 
          0                 1           2             4   13     1       0.8003384211E-02       4   13    1         0.4600312545E+00      0.8739097029E+00
          0                 2           2             7   13     1      -0.2369116257E-02       7   13    1        -0.1313829348E+00      0.1539059223E+00
          0                 3           2             4    7     1      -0.6972305101E-01       4    8    1        -0.3744574546E+01      0.9214703241E+01
          0                 4           2             4    7     1       0.7258150239E-01       4    7    1         0.4006992061E+01      0.9814722748E+01
          0                 5           2             4    7     1      -0.2889053362E-02       4    6    1        -0.1647915546E+00      0.4019162632E+00
          0                 6           1             4    7     1       0.3564958648E-04       4    6    1         0.2089975789E-02      0.5097906856E-02

    ------------------------------------------------
       NWT REQUIRED            6 OUTER ITERATIONS 
       AND A TOTAL OF         11 INNER ITERATIONS.
    ------------------------------------------------

 NO OUTPUT CONTROL FOR STRESS PERIOD    7   TIME STEP   24
 
 SOLVING FOR HEAD 
                                                   Max.-Head-Change                         Max.-Flux-Residual
  Residual-Control   Outer-Iter.   Inner-Iter.     Column Row Layer    Maximum-Head-Change  Column Row Layer    Maximum-Flux-Residual          L2-NORM 
          0                 1           2             4   13     1       0.8084225067E-02       4   13    1         0.4646609044E+00      0.8815465958E+00
          0                 2           2             7   13     1      -0.2370581815E-02       7   13    1        -0.1314635147E+00      0.1543505929E+00
          0                 3           2             4    7     1      -0.6972305796E-01       4    8    1        -0.3744576979E+01      0.9214737435E+01
          0                 4           2             4    7     1       0.7258151223E-01       4    7    1         0.4006992323E+01      0.9814734224E+01
          0                 5           2             4    7     1      -0.2889059808E-02       4    6    1        -0.1648182893E+00      0.4019273030E+00
          0                 6           1             4    7     1       0.3564966646E-04       4    6    1         0.2090322102E-02      0.5098047901E-02

    ------------------------------------------------
       NWT REQUIRED            6 OUTER ITERATIONS 
       AND A TOTAL OF         11 INNER ITERATIONS.
    ------------------------------------------------

 NO OUTPUT CONTROL FOR STRESS PERIOD    7   TIME STEP   25
 
 SOLVING FOR HEAD 
                                                   Max.-Head-Change                         Max.-Flux-Residual
  Residual-Control   Outer-Iter.   Inner-Iter.     Column Row Layer    Maximum-Head-Change  Column Row Layer    Maximum-Flux-Residual          L2-NORM 
          0                 1           2             4   13     1       0.8157916853E-02       4   13    1         0.4688790154E+00      0.8886259491E+00
          0                 2           2             7   13     1      -0.2372019640E-02       7   13    1        -0.1315425654E+00      0.1547695562E+00
          0                 3           2             4    7     1      -0.6972306016E-01       4    8    1        -0.3744579098E+01      0.9214768774E+01
          0                 4           2             4    7     1       0.7258151733E-01       4    7    1         0.4006992330E+01      0.9814744888E+01
          0                 5           2             4    7     1      -0.2889065967E-02       4    6    1        -0.1648445881E+00      0.4019381532E+00
          0                 6           1             4    7     1       0.3564974241E-04       4    6    1         0.2090662785E-02      0.5098190060E-02

    ------------------------------------------------
       NWT REQUIRED            6 OUTER ITERATIONS 
       AND A TOTAL OF         11 INNER ITERATIONS.
    ------------------------------------------------

 NO OUTPUT CONTROL FOR STRESS PERIOD    7   TIME STEP   26
 
 SOLVING FOR HEAD 
                                                   Max.-Head-Change                         Max.-Flux-Residual
  Residual-Control   Outer-Iter.   Inner-Iter.     Column Row Layer    Maximum-Head-Change  Column Row Layer    Maximum-Flux-Residual          L2-NORM 
          0                 1           2             4   13     1       0.8225193524E-02       4   13    1         0.4727280977E+00      0.8951894811E+00
          0                 2           2             7   13     1      -0.2373447777E-02       7   13    1        -0.1316211035E+00      0.1551620335E+00
          0                 3           2             4    7     1      -0.6972307453E-01       4    8    1        -0.3744581621E+01      0.9214799447E+01
          0                 4           2             4    7     1       0.7258153175E-01       4    7    1         0.4006992860E+01      0.9814756615E+01
          0                 5           2             4    7     1      -0.2889072405E-02       4    6    1        -0.1648704966E+00      0.4019488830E+00
          0                 6           1             4    7     1       0.3564982194E-04       4    6    1         0.2090998385E-02      0.5098330270E-02

    ------------------------------------------------
       NWT REQUIRED            6 OUTER ITERATIONS 
       AND A TOTAL OF         11 INNER ITERATIONS.
    ------------------------------------------------

 NO OUTPUT CONTROL FOR STRESS PERIOD    7   TIME STEP   27
 
 SOLVING FOR HEAD 
                                                   Max.-Head-Change                         Max.-Flux-Residual
  Residual-Control   Outer-Iter.   Inner-Iter.     Column Row Layer    Maximum-Head-Change  Column Row Layer    Maximum-Flux-Residual          L2-NORM 
          0                 1           2             4   13     1       0.8286492061E-02       4   13    1         0.4762333896E+00      0.9012677999E+00
          0                 2           2             7   13     1      -0.2374840420E-02       7   13    1        -0.1316977002E+00      0.1555311841E+00
          0                 3           2             4    7     1      -0.6972308390E-01       4    8    1        -0.3744583881E+01      0.9214827696E+01
          0                 4           2             4    7     1       0.7258154143E-01       4    7    1         0.4006993133E+01      0.9814767549E+01
          0                 5           2             4    7     1      -0.2889078568E-02       4    6    1        -0.1648960122E+00      0.4019594344E+00
          0                 6           1             4    7     1       0.3564989789E-04       4    6    1         0.2091328907E-02      0.5098473254E-02

    ------------------------------------------------
       NWT REQUIRED            6 OUTER ITERATIONS 
       AND A TOTAL OF         11 INNER ITERATIONS.
    ------------------------------------------------

 NO OUTPUT CONTROL FOR STRESS PERIOD    7   TIME STEP   28
 
 SOLVING FOR HEAD 
                                                   Max.-Head-Change                         Max.-Flux-Residual
  Residual-Control   Outer-Iter.   Inner-Iter.     Column Row Layer    Maximum-Head-Change  Column Row Layer    Maximum-Flux-Residual          L2-NORM 
          0                 1           2             4   13     1       0.8342471563E-02       4   13    1         0.4794328277E+00      0.9069060301E+00
          0                 2           2             7   13     1      -0.2376210723E-02       7   13    1        -0.1317730636E+00      0.1558774150E+00
          0                 3           2             4    7     1      -0.6972309627E-01       4    8    1        -0.3744586025E+01      0.9214854376E+01
          0                 4           2             4    7     1       0.7258155117E-01       4    7    1         0.4006993419E+01      0.9814778325E+01
          0                 5           2             4    7     1      -0.2889084645E-02       4    6    1        -0.1649211423E+00      0.4019698231E+00
          0                 6           1             4    7     1       0.3564997271E-04       4    6    1         0.2091654414E-02      0.5098600777E-02

    ------------------------------------------------
       NWT REQUIRED            6 OUTER ITERATIONS 
       AND A TOTAL OF         11 INNER ITERATIONS.
    ------------------------------------------------

 NO OUTPUT CONTROL FOR STRESS PERIOD    7   TIME STEP   29
 
 SOLVING FOR HEAD 
                                                   Max.-Head-Change                         Max.-Flux-Residual
  Residual-Control   Outer-Iter.   Inner-Iter.     Column Row Layer    Maximum-Head-Change  Column Row Layer    Maximum-Flux-Residual          L2-NORM 
          0                 1           2             4   13     1       0.7497112933E-02       4   13    1         0.4307699805E+00      0.8239741628E+00
          0                 2           2             7   13     1      -0.2132892610E-02       7   13    1        -0.1182814129E+00      0.1405009212E+00
          0                 3           2             4    7     1      -0.6972311245E-01       4    8    1        -0.3744588388E+01      0.9214647320E+01
          0                 4           2             4    7     1       0.7258156541E-01       4    7    1         0.4006993956E+01      0.9814865722E+01
          0                 5           2             4    7     1      -0.2889090818E-02       4    6    1        -0.1649459092E+00      0.4019889659E+00
          0                 6           1             4    7     1       0.3565004911E-04       4    6    1         0.2091975232E-02      0.5099881138E-02

    ------------------------------------------------
       NWT REQUIRED            6 OUTER ITERATIONS 
       AND A TOTAL OF         11 INNER ITERATIONS.
    ------------------------------------------------

 NO OUTPUT CONTROL FOR STRESS PERIOD    7   TIME STEP   30



 STREAM LISTING     PERIOD      7   STEP       30

 LAYER ROW COL. STREAM  RCH.  FLOW INTO     FLOW TO   FLOW OUT OF   OVRLND.     DIRECT     STREAM       STREAM     STREAM     STREAM   STREAMBED  STREAMBED
                SEG.NO.  NO.  STRM. RCH.    AQUIFER    STRM. RCH.    RUNOFF     PRECIP       ET          HEAD       DEPTH      WIDTH   CONDCTNC.   GRADIENT

   1    1    1     1     1    2.8852E+01  2.6229E-01   2.8590E+01  0.000E+00  0.000E+00  0.000E+00  1.09428E+03  1.233E+00  1.377E+01  6.197E-02  1.411E+00
   1    2    2     1     2    2.8590E+01  4.0577E-01   2.8184E+01  0.000E+00  0.000E+00  0.000E+00  1.08929E+03  1.228E+00  1.371E+01  9.596E-02  1.409E+00
   1    3    3     1     3    2.8184E+01  3.4562E-01   2.7838E+01  0.000E+00  0.000E+00  0.000E+00  1.08364E+03  1.223E+00  1.364E+01  8.184E-02  1.408E+00
   1    3    4     1     4    2.7838E+01  3.1791E-01   2.7521E+01  0.000E+00  0.000E+00  0.000E+00  1.07863E+03  1.219E+00  1.358E+01  7.536E-02  1.406E+00
   1    4    5     2     1    2.5521E+01  3.2899E-01   2.5192E+01  0.000E+00  0.000E+00  0.000E+00  1.07315E+03  1.218E+00  1.200E+01  7.800E-02  1.406E+00
   1    5    6     2     2    2.5192E+01  2.5257E-01   2.4939E+01  0.000E+00  0.000E+00  0.000E+00  1.06772E+03  1.209E+00  1.200E+01  6.000E-02  1.403E+00
   1    6    6     2     3    2.4939E+01  2.5213E-01   2.4687E+01  0.000E+00  0.000E+00  0.000E+00  1.06299E+03  1.202E+00  1.200E+01  6.000E-02  1.401E+00
   1    7    6     2     4    2.4687E+01  2.5169E-01   2.4435E+01  0.000E+00  0.000E+00  0.000E+00  1.05827E+03  1.195E+00  1.200E+01  6.000E-02  1.398E+00
   1    8    6     2     5    2.4435E+01  2.5125E-01   2.4184E+01  0.000E+00  0.000E+00  0.000E+00  1.05355E+03  1.187E+00  1.200E+01  6.000E-02  1.396E+00
   1    3    5     3     1    2.0000E+00  2.8252E-01   1.7175E+00  0.000E+00  0.000E+00  0.000E+00  1.07555E+03  1.909E+00  9.636E+00  7.227E-02  1.955E+00
   1    3    6     3     2    1.7175E+00  2.4905E-01   1.4684E+00  0.000E+00  0.000E+00  0.000E+00  1.07264E+03  1.727E+00  8.909E+00  6.682E-02  1.864E+00
   1    3    7     3     3    1.4684E+00  1.9718E-01   1.2712E+00  0.000E+00  0.000E+00  0.000E+00  1.06987E+03  1.555E+00  8.218E+00  5.547E-02  1.777E+00
   1    4    8     3     4    1.2712E+00  2.2567E-01   1.0456E+00  0.000E+00  0.000E+00  0.000E+00  1.06682E+03  1.364E+00  7.455E+00  6.709E-02  1.682E+00
   1    5    8     3     5    1.0456E+00  1.5790E-01   8.8768E-01  0.000E+00  0.000E+00  0.000E+00  1.06362E+03  1.164E+00  6.655E+00  4.991E-02  1.582E+00
   1    6    8     3     6    8.8768E-01  5.5980E-02   8.3170E-01  0.000E+00  0.000E+00  0.000E+00  1.06158E+03  1.036E+00  6.145E+00  1.844E-02  1.518E+00
   1    5   10     4     1    1.0000E+01  9.0919E-02   9.9091E+00  0.000E+00  0.000E+00  0.000E+00  1.07836E+03  6.368E-01  1.000E+01  2.500E-02  1.212E+00
   1    5    9     4     2    9.9091E+00  1.8158E-01   9.7275E+00  0.000E+00  0.000E+00  0.000E+00  1.07154E+03  6.315E-01  1.000E+01  5.000E-02  1.211E+00
   1    6    8     4     3    9.7275E+00  1.2689E-01   9.6006E+00  0.000E+00  0.000E+00  0.000E+00  1.06381E+03  6.256E-01  1.000E+01  3.500E-02  1.209E+00
   1    6    8     5     1    1.0432E+01  2.2686E-01   1.0205E+01  0.000E+00  0.000E+00  0.000E+00  1.05868E+03  6.790E-01  1.542E+01  6.166E-02  1.226E+00
   1    7    7     5     2    1.0205E+01  2.7894E-01   9.9265E+00  0.000E+00  0.000E+00  0.000E+00  1.05417E+03  6.732E-01  1.519E+01  7.594E-02  1.224E+00
   1    8    7     5     3    9.9265E+00  1.9221E-01   9.7343E+00  0.000E+00  0.000E+00  0.000E+00  1.04992E+03  6.676E-01  1.497E+01  5.241E-02  1.223E+00
   1    8    6     5     4    9.7343E+00  1.3577E-01   9.5985E+00  0.000E+00  0.000E+00  0.000E+00  1.04691E+03  6.637E-01  1.482E+01  3.706E-02  1.221E+00
   1    9    6     6     1    1.1313E+01  2.2526E-01   1.1088E+01  0.000E+00  0.000E+00  0.000E+00  1.04348E+03  7.543E-01  1.200E+01  6.000E-02  1.251E+00
   1   10    7     6     2    1.1088E+01  2.2471E-01   1.0863E+01  0.000E+00  0.000E+00  0.000E+00  1.03893E+03  7.451E-01  1.200E+01  6.000E-02  1.248E+00
   1   11    7     6     3    1.0863E+01  2.2416E-01   1.0639E+01  0.000E+00  0.000E+00  0.000E+00  1.03437E+03  7.359E-01  1.200E+01  6.000E-02  1.245E+00
   1   12    7     6     4    1.0639E+01  2.2360E-01   1.0416E+01  0.000E+00  0.000E+00  0.000E+00  1.02982E+03  7.267E-01  1.200E+01  6.000E-02  1.242E+00
   1   13    7     6     5    1.0416E+01 -5.3348E-02   1.0469E+01  0.000E+00  0.000E+00  0.000E+00  1.02663E+03  7.232E-01  1.200E+01  2.400E-01 -7.410E-02
   1   14    9     7     1    1.5000E+02  1.3680E+00   1.4863E+02  0.000E+00  0.000E+00  0.000E+00  1.03987E+03  2.288E+00  5.529E+01  5.593E-01  8.153E-01
   1   13    8     7     2    1.4863E+02  1.9152E+00   1.4672E+02  0.000E+00  0.000E+00  0.000E+00  1.03478E+03  2.279E+00  5.526E+01  6.148E-01  1.038E+00
   1   13    7     7     3    1.4672E+02  1.5827E+00   1.4513E+02  0.000E+00  0.000E+00  0.000E+00  1.02969E+03  2.270E+00  5.521E+01  5.584E-01  9.448E-01
   1   13    6     8     1    1.5560E+02  9.4216E-01   1.5466E+02  0.000E+00  0.000E+00  0.000E+00  1.02473E+03  2.853E+00  4.136E+01  4.215E-01  7.451E-01
   1   13    5     8     2    1.5466E+02  2.0064E-01   1.5446E+02  0.000E+00  0.000E+00  0.000E+00  1.01847E+03  2.849E+00  4.131E+01  4.209E-01  1.589E-01
   1   13    4     8     3    1.5446E+02 -2.3818E+00   1.5684E+02  0.000E+00  0.000E+00  0.000E+00  1.01223E+03  2.856E+00  4.141E+01  4.220E+00 -1.881E-01
   1   13    3     8     4    1.5684E+02 -3.6453E+00   1.6049E+02  0.000E+00  0.000E+00  0.000E+00  1.00600E+03  2.877E+00  4.171E+01  4.251E+00 -2.859E-01
   1   13    2     8     5    1.6049E+02 -2.6425E+00   1.6313E+02  0.000E+00  0.000E+00  0.000E+00  9.99773E+02  2.898E+00  4.202E+01  4.282E+00 -2.057E-01
   1   13    1     8     6    1.6313E+02 -2.0442E+00   1.6517E+02  0.000E+00  0.000E+00  0.000E+00  9.94789E+02  2.914E+00  4.225E+01  2.583E+00 -2.638E-01
   1    8    6     9     1    2.2469E+01  0.0000E+00   2.2469E+01  0.000E+00  0.000E+00  0.000E+00  1.08243E+03  3.683E+00  4.000E+00  0.000E+00  2.228E+00
   1    8    5     9     2    2.2469E+01  0.0000E+00   2.2469E+01  0.000E+00  0.000E+00  0.000E+00  1.08193E+03  3.683E+00  4.000E+00  0.000E+00  2.228E+00





UNSATURATED ZONE PACKAGE VOLUMETRIC BUDGET FOR  TIME STEP    30 STRESS PERIOD    7
  ------------------------------------------------------------------------------



     CUMULATIVE VOLUMES      L**3       RATES FOR THIS TIME STEP      L**3/T
     ------------------                 ------------------------

           IN:                                      IN:
           ---                                      ---
        INFILTRATION =   102051053.7198          INFILTRATION =          23.3170

          OUT:                                     OUT:
          ----                                     ----
              UZF ET =   101798403.8055                UZF ET =          23.3175
        UZF RECHARGE =       73224.0000          UZF RECHARGE =       0.0000E+00

            IN - OUT =      179425.9144              IN - OUT =      -4.8208E-04

          STORAGE:                                 STORAGE:
          --------                                 --------
      STORAGE CHANGE =      179423.7192        STORAGE CHANGE =      -4.8387E-04

 PERCENT DISCREPANCY IS DIFFERENCE BETWEEN IN-OUT MINUS CHANGE IN STORAGE
 DIVIDED BY THE AVERAGE OF IN AND OUT TIMES 100

 PERCENT DISCREPANCY =           0.00     PERCENT DISCREPANCY =           0.00






1
  VOLUMETRIC BUDGET FOR AGRICULTURAL FIELDS AT  END OF TIME STEP   30, STRESS PERIOD   7
  ------------------------------------------------------------------------------

     CUMULATIVE VOLUMES      L**3       RATES FOR THIS TIME STEP      L**3/T
     ------------------                 ------------------------

           IN:                                      IN:
           ---                                      ---
           AG WELLS      =      879324.2500             AG WELLS      =           0.0000
      DIVERSION SEGMENTS =    87737024.0000        DIVERSION SEGMENTS =          22.4691
           GW IRRIGATION =           0.0000             GW IRRIGATION =           0.0000
           SW IRRIGATION =           0.0000             SW IRRIGATION =           0.0000
        SYSTEM LOSSES GW =           0.0000          SYSTEM LOSSES GW =           0.0000
        SYSTEM LOSSES SW =           0.0000          SYSTEM LOSSES SW =           0.0000

                TOTAL IN =    88616352.0000                  TOTAL IN =          22.4691

          OUT:                                     OUT:
          ----                                     ----
           AG WELLS      =           0.0000             AG WELLS      =           0.0000
      DIVERSION SEGMENTS =           0.0000        DIVERSION SEGMENTS =           0.0000
           GW IRRIGATION =      879324.2500             GW IRRIGATION =           0.0000
           SW IRRIGATION =    87738768.0000             SW IRRIGATION =          22.4695
        SYSTEM LOSSES GW =           0.0000          SYSTEM LOSSES GW =           0.0000
        SYSTEM LOSSES SW =           0.0000          SYSTEM LOSSES SW =           0.0000

               TOTAL OUT =    88618096.0000                 TOTAL OUT =          22.4695

                IN - OUT =       -1744.0000                  IN - OUT =      -4.5013E-04

     PERCENT DISCREPANCY =          -0.00         PERCENT DISCREPANCY =          -0.00



1
  VOLUMETRIC BUDGET FOR ENTIRE MODEL AT END OF TIME STEP   30, STRESS PERIOD   7
  ------------------------------------------------------------------------------

     CUMULATIVE VOLUMES      L**3       RATES FOR THIS TIME STEP      L**3/T
     ------------------                 ------------------------

           IN:                                      IN:
           ---                                      ---
             STORAGE     =    11596560.0000               STORAGE     =           0.8330
       CONSTANT HEAD     =           0.0000         CONSTANT HEAD     =           0.0000
     HEAD DEP BOUNDS     =     4567468.0000       HEAD DEP BOUNDS     =           0.2880
      STREAM LEAKAGE     =   187995200.0000        STREAM LEAKAGE     =          11.9761
        UZF RECHARGE     =       73223.9531          UZF RECHARGE     =           0.0000
               GW ET     =           0.0000                 GW ET     =           0.0000
     SURFACE LEAKAGE     =           0.0000       SURFACE LEAKAGE     =           0.0000
           AG WELLS      =           0.0000             AG WELLS      =           0.0000

                TOTAL IN =   204232448.0000                  TOTAL IN =          13.0971

          OUT:                                     OUT:
          ----                                     ----
             STORAGE     =    35549276.0000               STORAGE     =           2.0417
       CONSTANT HEAD     =           0.0000         CONSTANT HEAD     =           0.0000
     HEAD DEP BOUNDS     =     4578122.5000       HEAD DEP BOUNDS     =           0.2880
      STREAM LEAKAGE     =   163228768.0000        STREAM LEAKAGE     =          10.7672
        UZF RECHARGE     =           0.0000          UZF RECHARGE     =           0.0000
               GW ET     =           0.0000                 GW ET     =           0.0000
     SURFACE LEAKAGE     =           0.0000       SURFACE LEAKAGE     =           0.0000
           AG WELLS      =      879324.2500             AG WELLS      =           0.0000

               TOTAL OUT =   204235488.0000                 TOTAL OUT =          13.0969

                IN - OUT =       -3040.0000                  IN - OUT =       1.8978E-04

     PERCENT DISCREPANCY =          -0.00         PERCENT DISCREPANCY =           0.00






         TIME SUMMARY AT END OF TIME STEP   30 IN STRESS PERIOD    7
                    SECONDS     MINUTES      HOURS       DAYS        YEARS
                    -----------------------------------------------------------
   TIME STEP LENGTH  87667.      1461.1      24.352      1.0147     2.77799E-03
 STRESS PERIOD TIME 2.63000E+06  43833.      730.56      30.440     8.33397E-02
         TOTAL TIME 1.58664E+07 2.64440E+05  4407.3      183.64     0.50278    
1
1
                            STRESS PERIOD NO.    8, LENGTH =   2630000.    
                            -----------------------------------------------

                              NUMBER OF TIME STEPS =    30

                               MULTIPLIER FOR DELT =     1.000

                            INITIAL TIME STEP SIZE =   87666.66    

 REUSING NON-PARAMETER GHB CELLS FROM LAST STRESS PERIOD

      2 GHB CELLS

 REUSING STREAM SEGMENT DATA FROM LAST STRESS PERIOD



            AREAL INFILTRATION RATE
 READING ON UNIT   19 WITH FORMAT: (FREE)              

            1           2           3           4           5           6           7           8           9          10
 ........................................................................................................................
   1   1.0000E-10  2.0000E-10   0.000       0.000       0.000       0.000       0.000       0.000       0.000       0.000    
   2   2.0000E-10  1.0000E-10  2.0000E-10   0.000       0.000      8.0000E-10  8.0000E-10  5.0000E-10   0.000       0.000    
   3    0.000      5.0000E-10  1.0000E-10  1.0000E-10  8.0000E-10  8.0000E-10  5.0000E-10  5.0000E-10   0.000       0.000    
   4   8.0000E-10  5.0000E-10  1.0000E-10  1.0000E-10  1.0000E-10  1.0000E-10  1.0000E-10  1.0000E-10  2.0000E-10   0.000    
   5   8.0000E-10  5.0000E-10  1.0000E-10  1.0000E-10  1.0000E-10  1.0000E-10  1.0000E-10  1.0000E-10  1.0000E-10  1.0000E-10
   6   8.0000E-10  5.0000E-10  5.0000E-10  2.0000E-10  2.0000E-10  1.0000E-10  1.0000E-10  1.0000E-10  1.0000E-10  5.0000E-10
   7   8.0000E-10  5.0000E-10  5.0000E-10  2.0000E-10  2.0000E-10  1.0000E-10  1.0000E-10  2.0000E-10  2.0000E-10   0.000    
   8    0.000      5.0000E-10  5.0000E-10  2.0000E-10  2.0000E-10  1.0000E-10  1.0000E-10  2.0000E-10  5.0000E-10   0.000    
   9    0.000      5.0000E-10  5.0000E-10  2.0000E-10  2.0000E-10  1.0000E-10  1.0000E-10  2.0000E-10  5.0000E-10   0.000    
  10    0.000      5.0000E-10  5.0000E-10  2.0000E-10  2.0000E-10  1.0000E-10  1.0000E-10  2.0000E-10  5.0000E-10  8.0000E-10
  11    0.000      1.0000E-10  1.0000E-10  1.0000E-10  1.0000E-10  1.0000E-10  1.0000E-10  2.0000E-10  5.0000E-10   0.000    
  12   1.0000E-10  1.0000E-10  1.0000E-10  1.0000E-10  1.0000E-10  1.0000E-10  1.0000E-10  1.0000E-10  2.0000E-10   0.000    
  13   1.0000E-10  1.0000E-10  2.0000E-10  2.0000E-10  2.0000E-10  2.0000E-10  2.0000E-10  1.0000E-10  1.0000E-10   0.000    
  14    0.000      2.0000E-10  5.0000E-10  5.0000E-10  5.0000E-10  5.0000E-10  5.0000E-10  2.0000E-10  1.0000E-10   0.000    
  15    0.000       0.000      8.0000E-10  8.0000E-10  8.0000E-10  8.0000E-10   0.000       0.000       0.000       0.000    

                  ET RATE =  4.000000E-07

 USING ET EXTINCTION DEPTH FROM PREVIOUS STRESS PERIOD. CURRENT PERIOD IS:       8

 USING EXTINCTION WATER CONTENT FROM PREVIOUS STRESS PERIOD. CURRENT PERIOD IS:       8

 USING AIR ENTRY PRESSURE FROM PREVIOUS STRESS PERIOD. CURRENT PERIOD IS:       8

 USING ROOT PRESSURE HEAD FROM PREVIOUS STRESS PERIOD. CURRENT PERIOD IS:       8

 USING ROOT ACTIVITY FROM PREVIOUS STRESS PERIOD. CURRENT PERIOD IS:       8

 PROCESSING AG STRESS PERIOD DATA

 READING AG STRESS PERIOD DATA

 READING IRRIGATION SEGMENT

 READING IRRIGATION WELL

 READING SUPPLEMENTAL WELL

 END PROCESSING AG STRESS PERIOD DATA OPTIONS
 
 SOLVING FOR HEAD 
                                                   Max.-Head-Change                         Max.-Flux-Residual
  Residual-Control   Outer-Iter.   Inner-Iter.     Column Row Layer    Maximum-Head-Change  Column Row Layer    Maximum-Flux-Residual          L2-NORM 
          0                 1           2             1    1     1       0.3080973014E-02       1    1    1         0.1599469271E+00      0.4528224164E+00
          0                 2           2             4    7     1      -0.2289124756E+00       5    6    1        -0.1229551004E+02      0.3011486120E+02
          0                 3           2             4    7     1       0.1551157360E-01       5    6    1         0.8606712352E+00      0.2103015908E+01
          0                 4           2             4    7     1      -0.6172214975E-03       5    6    1        -0.3520157447E-01      0.8601387161E-01
          0                 5           1             4    7     1       0.7610606629E-05       5    6    1         0.4461123281E-03      0.1090116245E-02

    ------------------------------------------------
       NWT REQUIRED            5 OUTER ITERATIONS 
       AND A TOTAL OF          9 INNER ITERATIONS.
    ------------------------------------------------

 OUTPUT CONTROL FOR STRESS PERIOD    8   TIME STEP    1
    PRINT BUDGET
    SAVE BUDGET
 UBDSV1 SAVING "         STORAGE" ON UNIT 102 AT TIME STEP  1, STRESS PERIOD   8
 UBDSV2 SAVING "   CONSTANT HEAD" ON UNIT 102 AT TIME STEP  1, STRESS PERIOD   8
 UBDSV1 SAVING "FLOW RIGHT FACE " ON UNIT 102 AT TIME STEP  1, STRESS PERIOD   8
 UBDSV1 SAVING "FLOW FRONT FACE " ON UNIT 102 AT TIME STEP  1, STRESS PERIOD   8

  HEAD DEP BOUNDS   PERIOD    8   STEP     1
 BOUNDARY      1   LAYER   1   ROW    13   COL     1   RATE   -0.287978    
 BOUNDARY      2   LAYER   1   ROW    14   COL     9   RATE    0.287952    



 STREAM LISTING     PERIOD      8   STEP        1

 LAYER ROW COL. STREAM  RCH.  FLOW INTO     FLOW TO   FLOW OUT OF   OVRLND.     DIRECT     STREAM       STREAM     STREAM     STREAM   STREAMBED  STREAMBED
                SEG.NO.  NO.  STRM. RCH.    AQUIFER    STRM. RCH.    RUNOFF     PRECIP       ET          HEAD       DEPTH      WIDTH   CONDCTNC.   GRADIENT

   1    1    1     1     1    2.8125E+01  2.5915E-01   2.7866E+01  0.000E+00  0.000E+00  0.000E+00  1.09427E+03  1.223E+00  1.364E+01  6.137E-02  1.408E+00
   1    2    2     1     2    2.7866E+01  4.0087E-01   2.7465E+01  0.000E+00  0.000E+00  0.000E+00  1.08928E+03  1.218E+00  1.358E+01  9.503E-02  1.406E+00
   1    3    3     1     3    2.7465E+01  3.4143E-01   2.7124E+01  0.000E+00  0.000E+00  0.000E+00  1.08363E+03  1.213E+00  1.351E+01  8.104E-02  1.404E+00
   1    3    4     1     4    2.7124E+01  3.1403E-01   2.6810E+01  0.000E+00  0.000E+00  0.000E+00  1.07862E+03  1.209E+00  1.344E+01  7.461E-02  1.403E+00
   1    4    5     2     1    2.4810E+01  3.2739E-01   2.4482E+01  0.000E+00  0.000E+00  0.000E+00  1.07313E+03  1.197E+00  1.200E+01  7.800E-02  1.399E+00
   1    5    6     2     2    2.4482E+01  2.5133E-01   2.4231E+01  0.000E+00  0.000E+00  0.000E+00  1.06770E+03  1.189E+00  1.200E+01  6.000E-02  1.396E+00
   1    6    6     2     3    2.4231E+01  2.5089E-01   2.3980E+01  0.000E+00  0.000E+00  0.000E+00  1.06297E+03  1.181E+00  1.200E+01  6.000E-02  1.394E+00
   1    7    6     2     4    2.3980E+01  2.5044E-01   2.3730E+01  0.000E+00  0.000E+00  0.000E+00  1.05825E+03  1.174E+00  1.200E+01  6.000E-02  1.391E+00
   1    8    6     2     5    2.3730E+01  2.5000E-01   2.3480E+01  0.000E+00  0.000E+00  0.000E+00  1.05353E+03  1.167E+00  1.200E+01  6.000E-02  1.389E+00
   1    3    5     3     1    2.0000E+00  2.8252E-01   1.7175E+00  0.000E+00  0.000E+00  0.000E+00  1.07555E+03  1.909E+00  9.636E+00  7.227E-02  1.955E+00
   1    3    6     3     2    1.7175E+00  2.4905E-01   1.4684E+00  0.000E+00  0.000E+00  0.000E+00  1.07264E+03  1.727E+00  8.909E+00  6.682E-02  1.864E+00
   1    3    7     3     3    1.4684E+00  1.9718E-01   1.2712E+00  0.000E+00  0.000E+00  0.000E+00  1.06987E+03  1.555E+00  8.218E+00  5.547E-02  1.777E+00
   1    4    8     3     4    1.2712E+00  2.2567E-01   1.0456E+00  0.000E+00  0.000E+00  0.000E+00  1.06682E+03  1.364E+00  7.455E+00  6.709E-02  1.682E+00
   1    5    8     3     5    1.0456E+00  1.5790E-01   8.8768E-01  0.000E+00  0.000E+00  0.000E+00  1.06362E+03  1.164E+00  6.655E+00  4.991E-02  1.582E+00
   1    6    8     3     6    8.8768E-01  5.5980E-02   8.3170E-01  0.000E+00  0.000E+00  0.000E+00  1.06158E+03  1.036E+00  6.145E+00  1.844E-02  1.518E+00
   1    5   10     4     1    1.0000E+01  9.0919E-02   9.9091E+00  0.000E+00  0.000E+00  0.000E+00  1.07836E+03  6.368E-01  1.000E+01  2.500E-02  1.212E+00
   1    5    9     4     2    9.9091E+00  1.8158E-01   9.7275E+00  0.000E+00  0.000E+00  0.000E+00  1.07154E+03  6.315E-01  1.000E+01  5.000E-02  1.211E+00
   1    6    8     4     3    9.7275E+00  1.2689E-01   9.6006E+00  0.000E+00  0.000E+00  0.000E+00  1.06381E+03  6.256E-01  1.000E+01  3.500E-02  1.209E+00
   1    6    8     5     1    1.0432E+01  2.2686E-01   1.0205E+01  0.000E+00  0.000E+00  0.000E+00  1.05868E+03  6.790E-01  1.542E+01  6.166E-02  1.226E+00
   1    7    7     5     2    1.0205E+01  2.7894E-01   9.9265E+00  0.000E+00  0.000E+00  0.000E+00  1.05417E+03  6.732E-01  1.519E+01  7.594E-02  1.224E+00
   1    8    7     5     3    9.9265E+00  1.9221E-01   9.7343E+00  0.000E+00  0.000E+00  0.000E+00  1.04992E+03  6.676E-01  1.497E+01  5.241E-02  1.223E+00
   1    8    6     5     4    9.7343E+00  1.3577E-01   9.5985E+00  0.000E+00  0.000E+00  0.000E+00  1.04691E+03  6.637E-01  1.482E+01  3.706E-02  1.221E+00
   1    9    6     6     1    9.5985E+00  2.2097E-01   9.3776E+00  0.000E+00  0.000E+00  0.000E+00  1.04341E+03  6.828E-01  1.200E+01  6.000E-02  1.228E+00
   1   10    7     6     2    9.3776E+00  2.2039E-01   9.1572E+00  0.000E+00  0.000E+00  0.000E+00  1.03885E+03  6.732E-01  1.200E+01  6.000E-02  1.224E+00
   1   11    7     6     3    9.1572E+00  2.1981E-01   8.9374E+00  0.000E+00  0.000E+00  0.000E+00  1.03430E+03  6.636E-01  1.200E+01  6.000E-02  1.221E+00
   1   12    7     6     4    8.9374E+00  2.1923E-01   8.7181E+00  0.000E+00  0.000E+00  0.000E+00  1.02974E+03  6.539E-01  1.200E+01  6.000E-02  1.218E+00
   1   13    7     6     5    8.7181E+00 -7.0575E-02   8.7887E+00  0.000E+00  0.000E+00  0.000E+00  1.02656E+03  6.505E-01  1.200E+01  2.400E-01 -9.802E-02
   1   14    9     7     1    1.5000E+02  1.3680E+00   1.4863E+02  0.000E+00  0.000E+00  0.000E+00  1.03987E+03  2.288E+00  5.529E+01  5.593E-01  8.153E-01
   1   13    8     7     2    1.4863E+02  1.9152E+00   1.4672E+02  0.000E+00  0.000E+00  0.000E+00  1.03478E+03  2.279E+00  5.526E+01  6.148E-01  1.038E+00
   1   13    7     7     3    1.4672E+02  1.5832E+00   1.4513E+02  0.000E+00  0.000E+00  0.000E+00  1.02969E+03  2.270E+00  5.521E+01  5.584E-01  9.451E-01
   1   13    6     8     1    1.5392E+02  9.3380E-01   1.5299E+02  0.000E+00  0.000E+00  0.000E+00  1.02472E+03  2.841E+00  4.119E+01  4.198E-01  7.415E-01
   1   13    5     8     2    1.5299E+02  1.9531E-01   1.5279E+02  0.000E+00  0.000E+00  0.000E+00  1.01846E+03  2.837E+00  4.114E+01  4.192E-01  1.553E-01
   1   13    4     8     3    1.5279E+02 -2.4125E+00   1.5521E+02  0.000E+00  0.000E+00  0.000E+00  1.01222E+03  2.845E+00  4.125E+01  4.203E+00 -1.913E-01
   1   13    3     8     4    1.5521E+02 -3.6708E+00   1.5888E+02  0.000E+00  0.000E+00  0.000E+00  1.00599E+03  2.866E+00  4.155E+01  4.234E+00 -2.890E-01
   1   13    2     8     5    1.5888E+02 -2.6700E+00   1.6155E+02  0.000E+00  0.000E+00  0.000E+00  9.99762E+02  2.887E+00  4.187E+01  4.266E+00 -2.086E-01
   1   13    1     8     6    1.6155E+02 -2.0596E+00   1.6361E+02  0.000E+00  0.000E+00  0.000E+00  9.94778E+02  2.903E+00  4.210E+01  2.574E+00 -2.667E-01
   1    8    6     9     1    2.3480E+01  0.0000E+00   2.3480E+01  0.000E+00  0.000E+00  0.000E+00  1.08253E+03  3.782E+00  4.000E+00  0.000E+00  2.261E+00
   1    8    5     9     2    2.3480E+01  0.0000E+00   2.3480E+01  0.000E+00  0.000E+00  0.000E+00  1.08203E+03  3.782E+00  4.000E+00  0.000E+00  2.261E+00



 UBDSV3 SAVING "           GW ET" ON UNIT  61 AT TIME STEP  1, STRESS PERIOD   8
 UBDSV3 SAVING "    UZF RECHARGE" ON UNIT  61 AT TIME STEP  1, STRESS PERIOD   8
 UBDSV3 SAVING " SURFACE LEAKAGE" ON UNIT  61 AT TIME STEP  1, STRESS PERIOD   8
 UBDSV3 SAVING "       HORT+DUNN" ON UNIT  61 AT TIME STEP  1, STRESS PERIOD   8
 UBDSV3 SAVING "  STORAGE CHANGE" ON UNIT  61 AT TIME STEP  1, STRESS PERIOD   8


UNSATURATED ZONE PACKAGE VOLUMETRIC BUDGET FOR  TIME STEP     1 STRESS PERIOD    8
  ------------------------------------------------------------------------------



     CUMULATIVE VOLUMES      L**3       RATES FOR THIS TIME STEP      L**3/T
     ------------------                 ------------------------

           IN:                                      IN:
           ---                                      ---
        INFILTRATION =   110648030.4657          INFILTRATION =          98.0644

          OUT:                                     OUT:
          ----                                     ----
              UZF ET =   107130071.0514                UZF ET =          60.8175
        UZF RECHARGE =       73224.0000          UZF RECHARGE =       0.0000E+00

            IN - OUT =     3444735.4144              IN - OUT =          37.2469

          STORAGE:                                 STORAGE:
          --------                                 --------
      STORAGE CHANGE =     3444732.8500        STORAGE CHANGE =          37.2469

 PERCENT DISCREPANCY IS DIFFERENCE BETWEEN IN-OUT MINUS CHANGE IN STORAGE
 DIVIDED BY THE AVERAGE OF IN AND OUT TIMES 100

 PERCENT DISCREPANCY =           0.00     PERCENT DISCREPANCY =           0.00






 

        AG WELLS          PERIOD    8   STEP   1
 AG WELL      1   LAYER   1   ROW     6   COL     4   RATE    -12.2895    
 AG WELL      2   LAYER   1   ROW     6   COL     5   RATE    -12.2895    
 AG WELL      3   LAYER   1   ROW     7   COL     4   RATE    -12.2895    
 AG WELL      4   LAYER   1   ROW     7   COL     5   RATE    -12.2895    
 AG WELL      5   LAYER   1   ROW     8   COL     4   RATE    -12.2895    
 AG WELL      6   LAYER   1   ROW     8   COL     5   RATE    -12.2895    
 
 

   DIVERSION SEGMENTS     PERIOD    8   STEP   1
 SEGMENT      9   RATE     23.4796    
 
 

        SW IRRIGATION     PERIOD    8   STEP   1
 SEGMENT      9   ROW     6   COL     4   RATE     3.91334    
 SEGMENT      9   ROW     6   COL     5   RATE     3.91334    
 SEGMENT      9   ROW     7   COL     4   RATE     3.91334    
 SEGMENT      9   ROW     7   COL     5   RATE     3.91334    
 SEGMENT      9   ROW     8   COL     4   RATE     3.91334    
 SEGMENT      9   ROW     8   COL     5   RATE     3.91334    
 
 

        GW IRRIGATION     PERIOD    8   STEP   1
 AG WELL      1   ROW     6   COL     4   RATE     12.2895    
 AG WELL      2   ROW     6   COL     5   RATE     12.2895    
 AG WELL      3   ROW     7   COL     4   RATE     12.2895    
 AG WELL      4   ROW     7   COL     5   RATE     12.2895    
 AG WELL      5   ROW     8   COL     4   RATE     12.2895    
 AG WELL      6   ROW     8   COL     5   RATE     12.2895    
 
1
  VOLUMETRIC BUDGET FOR AGRICULTURAL FIELDS AT  END OF TIME STEP    1, STRESS PERIOD   8
  ------------------------------------------------------------------------------

     CUMULATIVE VOLUMES      L**3       RATES FOR THIS TIME STEP      L**3/T
     ------------------                 ------------------------

           IN:                                      IN:
           ---                                      ---
           AG WELLS      =     7343585.0000             AG WELLS      =          73.7368
      DIVERSION SEGMENTS =    89795400.0000        DIVERSION SEGMENTS =          23.4796
           GW IRRIGATION =           0.0000             GW IRRIGATION =           0.0000
           SW IRRIGATION =           0.0000             SW IRRIGATION =           0.0000
        SYSTEM LOSSES GW =           0.0000          SYSTEM LOSSES GW =           0.0000
        SYSTEM LOSSES SW =           0.0000          SYSTEM LOSSES SW =           0.0000

                TOTAL IN =    97138984.0000                  TOTAL IN =          97.2164

          OUT:                                     OUT:
          ----                                     ----
           AG WELLS      =           0.0000             AG WELLS      =           0.0000
      DIVERSION SEGMENTS =           0.0000        DIVERSION SEGMENTS =           0.0000
           GW IRRIGATION =     7343585.0000             GW IRRIGATION =          73.7368
           SW IRRIGATION =    89797184.0000             SW IRRIGATION =          23.4801
        SYSTEM LOSSES GW =           0.0000          SYSTEM LOSSES GW =           0.0000
        SYSTEM LOSSES SW =           0.0000          SYSTEM LOSSES SW =           0.0000

               TOTAL OUT =    97140768.0000                 TOTAL OUT =          97.2169

                IN - OUT =       -1784.0000                  IN - OUT =      -4.7302E-04

     PERCENT DISCREPANCY =          -0.00         PERCENT DISCREPANCY =          -0.00



1
  VOLUMETRIC BUDGET FOR ENTIRE MODEL AT END OF TIME STEP    1, STRESS PERIOD   8
  ------------------------------------------------------------------------------

     CUMULATIVE VOLUMES      L**3       RATES FOR THIS TIME STEP      L**3/T
     ------------------                 ------------------------

           IN:                                      IN:
           ---                                      ---
             STORAGE     =    18096428.0000               STORAGE     =          74.1430
       CONSTANT HEAD     =           0.0000         CONSTANT HEAD     =           0.0000
     HEAD DEP BOUNDS     =     4592712.0000       HEAD DEP BOUNDS     =           0.2880
      STREAM LEAKAGE     =   189040448.0000        STREAM LEAKAGE     =          11.9229
        UZF RECHARGE     =       73223.9531          UZF RECHARGE     =           0.0000
               GW ET     =           0.0000                 GW ET     =           0.0000
     SURFACE LEAKAGE     =           0.0000       SURFACE LEAKAGE     =           0.0000
           AG WELLS      =           0.0000             AG WELLS      =           0.0000

                TOTAL IN =   211802800.0000                  TOTAL IN =          86.3539

          OUT:                                     OUT:
          ----                                     ----
             STORAGE     =    35676004.0000               STORAGE     =           1.4456
       CONSTANT HEAD     =           0.0000         CONSTANT HEAD     =           0.0000
     HEAD DEP BOUNDS     =     4603368.5000       HEAD DEP BOUNDS     =           0.2880
      STREAM LEAKAGE     =   164182880.0000        STREAM LEAKAGE     =          10.8835
        UZF RECHARGE     =           0.0000          UZF RECHARGE     =           0.0000
               GW ET     =           0.0000                 GW ET     =           0.0000
     SURFACE LEAKAGE     =           0.0000       SURFACE LEAKAGE     =           0.0000
           AG WELLS      =     7343585.0000             AG WELLS      =          73.7368

               TOTAL OUT =   211805840.0000                 TOTAL OUT =          86.3538

                IN - OUT =       -3040.0000                  IN - OUT =       3.8147E-05

     PERCENT DISCREPANCY =          -0.00         PERCENT DISCREPANCY =           0.00






         TIME SUMMARY AT END OF TIME STEP    1 IN STRESS PERIOD    8
                    SECONDS     MINUTES      HOURS       DAYS        YEARS
                    -----------------------------------------------------------
   TIME STEP LENGTH  87667.      1461.1      24.352      1.0147     2.77799E-03
 STRESS PERIOD TIME  87667.      1461.1      24.352      1.0147     2.77799E-03
         TOTAL TIME 1.59541E+07 2.65901E+05  4431.7      184.65     0.50555    
1
 
 SOLVING FOR HEAD 
                                                   Max.-Head-Change                         Max.-Flux-Residual
  Residual-Control   Outer-Iter.   Inner-Iter.     Column Row Layer    Maximum-Head-Change  Column Row Layer    Maximum-Flux-Residual          L2-NORM 
          0                 1           2             4   13     1       0.7516490396E-02       4   13    1         0.4318809428E+00      0.1146932926E+01
          0                 2           2             4    7     1      -0.2901597367E-01       5    6    1        -0.1586715766E+01      0.3882343103E+01
          0                 3           2             4    7     1      -0.4207122128E-01       4    7    1        -0.2258228552E+01      0.5553775808E+01
          0                 4           2             4    7     1       0.4410578757E-01       4    7    1         0.2433576376E+01      0.5961234174E+01
          0                 5           2             4    7     1      -0.3411657778E-02       4    7    1        -0.1934855973E+00      0.4739267548E+00
          0                 6           2             4    7     1      -0.2085824400E-01       5    8    1        -0.1182944067E+01      0.2897605524E+01
          0                 7           2             4    7     1       0.2575822643E-03       4    7    1         0.1501306812E-01      0.3677841663E-01
          0                 8           1             4    7     1       0.3783472707E-05       5    8    1         0.2208870078E-03      0.5416710181E-03

    ------------------------------------------------
       NWT REQUIRED            8 OUTER ITERATIONS 
       AND A TOTAL OF         15 INNER ITERATIONS.
    ------------------------------------------------

 NO OUTPUT CONTROL FOR STRESS PERIOD    8   TIME STEP    2
 
 SOLVING FOR HEAD 
                                                   Max.-Head-Change                         Max.-Flux-Residual
  Residual-Control   Outer-Iter.   Inner-Iter.     Column Row Layer    Maximum-Head-Change  Column Row Layer    Maximum-Flux-Residual          L2-NORM 
          0                 1           2             5    6     1       0.8588063968E-02       5    6    1         0.4687230656E+00      0.1260386507E+01
          0                 2           2             4    7     1      -0.9361171228E-01       5    6    1        -0.5058198622E+01      0.1239553056E+02
          0                 3           2             4    7     1       0.7310391156E-02       5    6    1         0.4056573727E+00      0.9951218164E+00
          0                 4           2             4    7     1      -0.1228107839E-01       5    6    1        -0.6966015247E+00      0.1706230426E+01
          0                 5           2             4    7     1       0.1514300497E-03       4    7    1         0.8826133744E-02      0.2162504579E-01
          0                 6           1             4    7     1       0.2227116692E-05       5    8    1         0.1300499825E-03      0.3189210420E-03

    ------------------------------------------------
       NWT REQUIRED            6 OUTER ITERATIONS 
       AND A TOTAL OF         11 INNER ITERATIONS.
    ------------------------------------------------

 NO OUTPUT CONTROL FOR STRESS PERIOD    8   TIME STEP    3
 
 SOLVING FOR HEAD 
                                                   Max.-Head-Change                         Max.-Flux-Residual
  Residual-Control   Outer-Iter.   Inner-Iter.     Column Row Layer    Maximum-Head-Change  Column Row Layer    Maximum-Flux-Residual          L2-NORM 
          0                 1           2             5    6     1       0.1107538721E-01       5    6    1         0.6051038328E+00      0.1511227482E+01
          0                 2           2             4    7     1      -0.9757613250E-01       5    6    1        -0.5281071385E+01      0.1292987168E+02
          0                 3           2             4    7     1       0.6708133052E-02       5    6    1         0.3731353351E+00      0.9150878870E+00
          0                 4           2             4    7     1      -0.1504242771E-01       5    6    1        -0.8532383589E+00      0.2089879583E+01
          0                 5           2             4    7     1       0.1854781978E-03       4    7    1         0.1081063251E-01      0.2648689957E-01
          0                 6           1             4    7     1       0.2727870768E-05       5    8    1         0.1592896863E-03      0.3906120222E-03

    ------------------------------------------------
       NWT REQUIRED            6 OUTER ITERATIONS 
       AND A TOTAL OF         11 INNER ITERATIONS.
    ------------------------------------------------

 NO OUTPUT CONTROL FOR STRESS PERIOD    8   TIME STEP    4
 
 SOLVING FOR HEAD 
                                                   Max.-Head-Change                         Max.-Flux-Residual
  Residual-Control   Outer-Iter.   Inner-Iter.     Column Row Layer    Maximum-Head-Change  Column Row Layer    Maximum-Flux-Residual          L2-NORM 
          0                 1           2             5    6     1       0.1364745825E-01       5    6    1         0.7460554477E+00      0.1789562443E+01
          0                 2           2             4    7     1      -0.9793076263E-01       5    6    1        -0.5310246478E+01      0.1299125986E+02
          0                 3           2             4    7     1       0.6671468329E-02       5    6    1         0.3718274302E+00      0.9111880915E+00
          0                 4           2             4    7     1      -0.1515107106E-01       5    6    1        -0.8594286543E+00      0.2105012825E+01
          0                 5           2             4    7     1       0.1868177974E-03       4    7    1         0.1088869432E-01      0.2667855205E-01
          0                 6           1             4    7     1       0.2747572697E-05       5    8    1         0.1604443873E-03      0.3934349186E-03

    ------------------------------------------------
       NWT REQUIRED            6 OUTER ITERATIONS 
       AND A TOTAL OF         11 INNER ITERATIONS.
    ------------------------------------------------

 OUTPUT CONTROL FOR STRESS PERIOD    8   TIME STEP    5
    PRINT BUDGET
    SAVE BUDGET
 UBDSV1 SAVING "         STORAGE" ON UNIT 102 AT TIME STEP  5, STRESS PERIOD   8
 UBDSV2 SAVING "   CONSTANT HEAD" ON UNIT 102 AT TIME STEP  5, STRESS PERIOD   8
 UBDSV1 SAVING "FLOW RIGHT FACE " ON UNIT 102 AT TIME STEP  5, STRESS PERIOD   8
 UBDSV1 SAVING "FLOW FRONT FACE " ON UNIT 102 AT TIME STEP  5, STRESS PERIOD   8

  HEAD DEP BOUNDS   PERIOD    8   STEP     5
 BOUNDARY      1   LAYER   1   ROW    13   COL     1   RATE   -0.287749    
 BOUNDARY      2   LAYER   1   ROW    14   COL     9   RATE    0.287954    



 STREAM LISTING     PERIOD      8   STEP        5

 LAYER ROW COL. STREAM  RCH.  FLOW INTO     FLOW TO   FLOW OUT OF   OVRLND.     DIRECT     STREAM       STREAM     STREAM     STREAM   STREAMBED  STREAMBED
                SEG.NO.  NO.  STRM. RCH.    AQUIFER    STRM. RCH.    RUNOFF     PRECIP       ET          HEAD       DEPTH      WIDTH   CONDCTNC.   GRADIENT

   1    1    1     1     1    2.8125E+01  2.5915E-01   2.7866E+01  0.000E+00  0.000E+00  0.000E+00  1.09427E+03  1.223E+00  1.364E+01  6.137E-02  1.408E+00
   1    2    2     1     2    2.7866E+01  4.0087E-01   2.7465E+01  0.000E+00  0.000E+00  0.000E+00  1.08928E+03  1.218E+00  1.358E+01  9.503E-02  1.406E+00
   1    3    3     1     3    2.7465E+01  3.4143E-01   2.7124E+01  0.000E+00  0.000E+00  0.000E+00  1.08363E+03  1.213E+00  1.351E+01  8.104E-02  1.404E+00
   1    3    4     1     4    2.7124E+01  3.1403E-01   2.6810E+01  0.000E+00  0.000E+00  0.000E+00  1.07862E+03  1.209E+00  1.344E+01  7.461E-02  1.403E+00
   1    4    5     2     1    2.4810E+01  3.2739E-01   2.4482E+01  0.000E+00  0.000E+00  0.000E+00  1.07313E+03  1.197E+00  1.200E+01  7.800E-02  1.399E+00
   1    5    6     2     2    2.4482E+01  2.5133E-01   2.4231E+01  0.000E+00  0.000E+00  0.000E+00  1.06770E+03  1.189E+00  1.200E+01  6.000E-02  1.396E+00
   1    6    6     2     3    2.4231E+01  2.5089E-01   2.3980E+01  0.000E+00  0.000E+00  0.000E+00  1.06297E+03  1.181E+00  1.200E+01  6.000E-02  1.394E+00
   1    7    6     2     4    2.3980E+01  2.5044E-01   2.3730E+01  0.000E+00  0.000E+00  0.000E+00  1.05825E+03  1.174E+00  1.200E+01  6.000E-02  1.391E+00
   1    8    6     2     5    2.3730E+01  2.5000E-01   2.3480E+01  0.000E+00  0.000E+00  0.000E+00  1.05353E+03  1.167E+00  1.200E+01  6.000E-02  1.389E+00
   1    3    5     3     1    2.0000E+00  2.8252E-01   1.7175E+00  0.000E+00  0.000E+00  0.000E+00  1.07555E+03  1.909E+00  9.636E+00  7.227E-02  1.955E+00
   1    3    6     3     2    1.7175E+00  2.4905E-01   1.4684E+00  0.000E+00  0.000E+00  0.000E+00  1.07264E+03  1.727E+00  8.909E+00  6.682E-02  1.864E+00
   1    3    7     3     3    1.4684E+00  1.9718E-01   1.2712E+00  0.000E+00  0.000E+00  0.000E+00  1.06987E+03  1.555E+00  8.218E+00  5.547E-02  1.777E+00
   1    4    8     3     4    1.2712E+00  2.2567E-01   1.0456E+00  0.000E+00  0.000E+00  0.000E+00  1.06682E+03  1.364E+00  7.455E+00  6.709E-02  1.682E+00
   1    5    8     3     5    1.0456E+00  1.5790E-01   8.8768E-01  0.000E+00  0.000E+00  0.000E+00  1.06362E+03  1.164E+00  6.655E+00  4.991E-02  1.582E+00
   1    6    8     3     6    8.8768E-01  5.5980E-02   8.3170E-01  0.000E+00  0.000E+00  0.000E+00  1.06158E+03  1.036E+00  6.145E+00  1.844E-02  1.518E+00
   1    5   10     4     1    1.0000E+01  9.0919E-02   9.9091E+00  0.000E+00  0.000E+00  0.000E+00  1.07836E+03  6.368E-01  1.000E+01  2.500E-02  1.212E+00
   1    5    9     4     2    9.9091E+00  1.8158E-01   9.7275E+00  0.000E+00  0.000E+00  0.000E+00  1.07154E+03  6.315E-01  1.000E+01  5.000E-02  1.211E+00
   1    6    8     4     3    9.7275E+00  1.2689E-01   9.6006E+00  0.000E+00  0.000E+00  0.000E+00  1.06381E+03  6.256E-01  1.000E+01  3.500E-02  1.209E+00
   1    6    8     5     1    1.0432E+01  2.2686E-01   1.0205E+01  0.000E+00  0.000E+00  0.000E+00  1.05868E+03  6.790E-01  1.542E+01  6.166E-02  1.226E+00
   1    7    7     5     2    1.0205E+01  2.7894E-01   9.9265E+00  0.000E+00  0.000E+00  0.000E+00  1.05417E+03  6.732E-01  1.519E+01  7.594E-02  1.224E+00
   1    8    7     5     3    9.9265E+00  1.9221E-01   9.7343E+00  0.000E+00  0.000E+00  0.000E+00  1.04992E+03  6.676E-01  1.497E+01  5.241E-02  1.223E+00
   1    8    6     5     4    9.7343E+00  1.3577E-01   9.5985E+00  0.000E+00  0.000E+00  0.000E+00  1.04691E+03  6.637E-01  1.482E+01  3.706E-02  1.221E+00
   1    9    6     6     1    9.5985E+00  2.2097E-01   9.3776E+00  0.000E+00  0.000E+00  0.000E+00  1.04341E+03  6.828E-01  1.200E+01  6.000E-02  1.228E+00
   1   10    7     6     2    9.3776E+00  2.2039E-01   9.1572E+00  0.000E+00  0.000E+00  0.000E+00  1.03885E+03  6.732E-01  1.200E+01  6.000E-02  1.224E+00
   1   11    7     6     3    9.1572E+00  2.1981E-01   8.9374E+00  0.000E+00  0.000E+00  0.000E+00  1.03430E+03  6.636E-01  1.200E+01  6.000E-02  1.221E+00
   1   12    7     6     4    8.9374E+00  2.1923E-01   8.7181E+00  0.000E+00  0.000E+00  0.000E+00  1.02974E+03  6.539E-01  1.200E+01  6.000E-02  1.218E+00
   1   13    7     6     5    8.7181E+00 -6.9810E-02   8.7879E+00  0.000E+00  0.000E+00  0.000E+00  1.02656E+03  6.505E-01  1.200E+01  2.400E-01 -9.696E-02
   1   14    9     7     1    1.5000E+02  1.3681E+00   1.4863E+02  0.000E+00  0.000E+00  0.000E+00  1.03987E+03  2.288E+00  5.529E+01  5.593E-01  8.153E-01
   1   13    8     7     2    1.4863E+02  1.9153E+00   1.4672E+02  0.000E+00  0.000E+00  0.000E+00  1.03478E+03  2.279E+00  5.526E+01  6.148E-01  1.039E+00
   1   13    7     7     3    1.4672E+02  1.5850E+00   1.4513E+02  0.000E+00  0.000E+00  0.000E+00  1.02969E+03  2.270E+00  5.521E+01  5.584E-01  9.461E-01
   1   13    6     8     1    1.5392E+02  9.3509E-01   1.5298E+02  0.000E+00  0.000E+00  0.000E+00  1.02472E+03  2.841E+00  4.119E+01  4.198E-01  7.425E-01
   1   13    5     8     2    1.5298E+02  1.9663E-01   1.5279E+02  0.000E+00  0.000E+00  0.000E+00  1.01846E+03  2.837E+00  4.114E+01  4.192E-01  1.564E-01
   1   13    4     8     3    1.5279E+02 -2.3879E+00   1.5518E+02  0.000E+00  0.000E+00  0.000E+00  1.01222E+03  2.845E+00  4.125E+01  4.203E+00 -1.894E-01
   1   13    3     8     4    1.5518E+02 -3.6472E+00   1.5882E+02  0.000E+00  0.000E+00  0.000E+00  1.00599E+03  2.865E+00  4.155E+01  4.234E+00 -2.871E-01
   1   13    2     8     5    1.5882E+02 -2.6429E+00   1.6147E+02  0.000E+00  0.000E+00  0.000E+00  9.99762E+02  2.887E+00  4.186E+01  4.266E+00 -2.065E-01
   1   13    1     8     6    1.6147E+02 -2.0451E+00   1.6351E+02  0.000E+00  0.000E+00  0.000E+00  9.94778E+02  2.903E+00  4.209E+01  2.573E+00 -2.649E-01
   1    8    6     9     1    2.3480E+01  0.0000E+00   2.3480E+01  0.000E+00  0.000E+00  0.000E+00  1.08253E+03  3.782E+00  4.000E+00  0.000E+00  2.261E+00
   1    8    5     9     2    2.3480E+01  0.0000E+00   2.3480E+01  0.000E+00  0.000E+00  0.000E+00  1.08203E+03  3.782E+00  4.000E+00  0.000E+00  2.261E+00



 UBDSV3 SAVING "           GW ET" ON UNIT  61 AT TIME STEP  5, STRESS PERIOD   8
 UBDSV3 SAVING "    UZF RECHARGE" ON UNIT  61 AT TIME STEP  5, STRESS PERIOD   8
 UBDSV3 SAVING " SURFACE LEAKAGE" ON UNIT  61 AT TIME STEP  5, STRESS PERIOD   8
 UBDSV3 SAVING "       HORT+DUNN" ON UNIT  61 AT TIME STEP  5, STRESS PERIOD   8
 UBDSV3 SAVING "  STORAGE CHANGE" ON UNIT  61 AT TIME STEP  5, STRESS PERIOD   8


UNSATURATED ZONE PACKAGE VOLUMETRIC BUDGET FOR  TIME STEP     5 STRESS PERIOD    8
  ------------------------------------------------------------------------------



     CUMULATIVE VOLUMES      L**3       RATES FOR THIS TIME STEP      L**3/T
     ------------------                 ------------------------

           IN:                                      IN:
           ---                                      ---
        INFILTRATION =   130062693.6992          INFILTRATION =          60.8058

          OUT:                                     OUT:
          ----                                     ----
              UZF ET =   128457131.1599                UZF ET =          60.8180
        UZF RECHARGE =       73224.0000          UZF RECHARGE =       0.0000E+00

            IN - OUT =     1532338.5394              IN - OUT =      -1.2142E-02

          STORAGE:                                 STORAGE:
          --------                                 --------
      STORAGE CHANGE =     1532335.4335        STORAGE CHANGE =      -1.2144E-02

 PERCENT DISCREPANCY IS DIFFERENCE BETWEEN IN-OUT MINUS CHANGE IN STORAGE
 DIVIDED BY THE AVERAGE OF IN AND OUT TIMES 100

 PERCENT DISCREPANCY =           0.00     PERCENT DISCREPANCY =           0.00






 

        AG WELLS          PERIOD    8   STEP   5
 AG WELL      1   LAYER   1   ROW     6   COL     4   RATE    -6.07971    
 AG WELL      2   LAYER   1   ROW     6   COL     5   RATE    -6.07971    
 AG WELL      3   LAYER   1   ROW     7   COL     4   RATE    -6.07971    
 AG WELL      4   LAYER   1   ROW     7   COL     5   RATE    -6.07971    
 AG WELL      5   LAYER   1   ROW     8   COL     4   RATE    -6.07971    
 AG WELL      6   LAYER   1   ROW     8   COL     5   RATE    -6.07971    
 
 

   DIVERSION SEGMENTS     PERIOD    8   STEP   5
 SEGMENT      9   RATE     23.4796    
 
 

        SW IRRIGATION     PERIOD    8   STEP   5
 SEGMENT      9   ROW     6   COL     4   RATE     3.91334    
 SEGMENT      9   ROW     6   COL     5   RATE     3.91334    
 SEGMENT      9   ROW     7   COL     4   RATE     3.91334    
 SEGMENT      9   ROW     7   COL     5   RATE     3.91334    
 SEGMENT      9   ROW     8   COL     4   RATE     3.91334    
 SEGMENT      9   ROW     8   COL     5   RATE     3.91334    
 
 

        GW IRRIGATION     PERIOD    8   STEP   5
 AG WELL      1   ROW     6   COL     4   RATE     6.07971    
 AG WELL      2   ROW     6   COL     5   RATE     6.07971    
 AG WELL      3   ROW     7   COL     4   RATE     6.07971    
 AG WELL      4   ROW     7   COL     5   RATE     6.07971    
 AG WELL      5   ROW     8   COL     4   RATE     6.07971    
 AG WELL      6   ROW     8   COL     5   RATE     6.07971    
 
1
  VOLUMETRIC BUDGET FOR AGRICULTURAL FIELDS AT  END OF TIME STEP    5, STRESS PERIOD   8
  ------------------------------------------------------------------------------

     CUMULATIVE VOLUMES      L**3       RATES FOR THIS TIME STEP      L**3/T
     ------------------                 ------------------------

           IN:                                      IN:
           ---                                      ---
           AG WELLS      =    18227384.0000             AG WELLS      =          36.4783
      DIVERSION SEGMENTS =    98028904.0000        DIVERSION SEGMENTS =          23.4796
           GW IRRIGATION =           0.0000             GW IRRIGATION =           0.0000
           SW IRRIGATION =           0.0000             SW IRRIGATION =           0.0000
        SYSTEM LOSSES GW =           0.0000          SYSTEM LOSSES GW =           0.0000
        SYSTEM LOSSES SW =           0.0000          SYSTEM LOSSES SW =           0.0000

                TOTAL IN =   116256288.0000                  TOTAL IN =          59.9579

          OUT:                                     OUT:
          ----                                     ----
           AG WELLS      =           0.0000             AG WELLS      =           0.0000
      DIVERSION SEGMENTS =           0.0000        DIVERSION SEGMENTS =           0.0000
           GW IRRIGATION =    18227384.0000             GW IRRIGATION =          36.4783
           SW IRRIGATION =    98030848.0000             SW IRRIGATION =          23.4801
        SYSTEM LOSSES GW =           0.0000          SYSTEM LOSSES GW =           0.0000
        SYSTEM LOSSES SW =           0.0000          SYSTEM LOSSES SW =           0.0000

               TOTAL OUT =   116258232.0000                 TOTAL OUT =          59.9583

                IN - OUT =       -1944.0000                  IN - OUT =      -4.6921E-04

     PERCENT DISCREPANCY =          -0.00         PERCENT DISCREPANCY =          -0.00



1
  VOLUMETRIC BUDGET FOR ENTIRE MODEL AT END OF TIME STEP    5, STRESS PERIOD   8
  ------------------------------------------------------------------------------

     CUMULATIVE VOLUMES      L**3       RATES FOR THIS TIME STEP      L**3/T
     ------------------                 ------------------------

           IN:                                      IN:
           ---                                      ---
             STORAGE     =    29070450.0000               STORAGE     =          36.6416
       CONSTANT HEAD     =           0.0000         CONSTANT HEAD     =           0.0000
     HEAD DEP BOUNDS     =     4693688.0000       HEAD DEP BOUNDS     =           0.2880
      STREAM LEAKAGE     =   193222400.0000        STREAM LEAKAGE     =          11.9274
        UZF RECHARGE     =       73223.9531          UZF RECHARGE     =           0.0000
               GW ET     =           0.0000                 GW ET     =           0.0000
     SURFACE LEAKAGE     =           0.0000       SURFACE LEAKAGE     =           0.0000
           AG WELLS      =           0.0000             AG WELLS      =           0.0000

                TOTAL IN =   227059744.0000                  TOTAL IN =          48.8570

          OUT:                                     OUT:
          ----                                     ----
             STORAGE     =    36152344.0000               STORAGE     =           1.2982
       CONSTANT HEAD     =           0.0000         CONSTANT HEAD     =           0.0000
     HEAD DEP BOUNDS     =     4704301.0000       HEAD DEP BOUNDS     =           0.2877
      STREAM LEAKAGE     =   167978768.0000        STREAM LEAKAGE     =          10.7928
        UZF RECHARGE     =           0.0000          UZF RECHARGE     =           0.0000
               GW ET     =           0.0000                 GW ET     =           0.0000
     SURFACE LEAKAGE     =           0.0000       SURFACE LEAKAGE     =           0.0000
           AG WELLS      =    18227384.0000             AG WELLS      =          36.4783

               TOTAL OUT =   227062784.0000                 TOTAL OUT =          48.8570

                IN - OUT =       -3040.0000                  IN - OUT =       1.5259E-05

     PERCENT DISCREPANCY =          -0.00         PERCENT DISCREPANCY =           0.00






         TIME SUMMARY AT END OF TIME STEP    5 IN STRESS PERIOD    8
                    SECONDS     MINUTES      HOURS       DAYS        YEARS
                    -----------------------------------------------------------
   TIME STEP LENGTH  87667.      1461.1      24.352      1.0147     2.77799E-03
 STRESS PERIOD TIME 4.38333E+05  7305.6      121.76      5.0733     1.38899E-02
         TOTAL TIME 1.63048E+07 2.71746E+05  4529.1      188.71     0.51667    
1
 
 SOLVING FOR HEAD 
                                                   Max.-Head-Change                         Max.-Flux-Residual
  Residual-Control   Outer-Iter.   Inner-Iter.     Column Row Layer    Maximum-Head-Change  Column Row Layer    Maximum-Flux-Residual          L2-NORM 
          0                 1           2             5    6     1       0.1610135989E-01       5    8    1         0.8807695959E+00      0.2067300159E+01
          0                 2           2             4    7     1      -0.9808303256E-01       5    8    1        -0.5327749489E+01      0.1302496658E+02
          0                 3           2             4    7     1       0.6677629334E-02       5    6    1         0.3728231446E+00      0.9129709756E+00
          0                 4           2             4    7     1      -0.1510611233E-01       5    6    1        -0.8569049758E+00      0.2098803983E+01
          0                 5           2             4    7     1       0.1853145177E-03       4    7    1         0.1080105285E-01      0.2646433918E-01
          0                 6           1             4    7     1       0.2725463544E-05       5    8    1         0.1591582882E-03      0.3902761189E-03

    ------------------------------------------------
       NWT REQUIRED            6 OUTER ITERATIONS 
       AND A TOTAL OF         11 INNER ITERATIONS.
    ------------------------------------------------

 NO OUTPUT CONTROL FOR STRESS PERIOD    8   TIME STEP    6
 
 SOLVING FOR HEAD 
                                                   Max.-Head-Change                         Max.-Flux-Residual
  Residual-Control   Outer-Iter.   Inner-Iter.     Column Row Layer    Maximum-Head-Change  Column Row Layer    Maximum-Flux-Residual          L2-NORM 
          0                 1           2             5    6     1       0.1843300552E-01       5    8    1         0.1010172626E+01      0.2339026330E+01
          0                 2           2             4    7     1      -0.9822298805E-01       5    8    1        -0.5343901540E+01      0.1305590111E+02
          0                 3           2             4    7     1       0.6687151775E-02       5    6    1         0.3739453889E+00      0.9151329757E+00
          0                 4           2             4    7     1      -0.1504988744E-01       5    6    1        -0.8537398469E+00      0.2091026524E+01
          0                 5           2             4    7     1       0.1846212504E-03       4    7    1         0.1076062764E-01      0.2636564201E-01
          0                 6           1             4    7     1       0.2690726047E-05       5    8    1         0.1571361063E-03      0.3853194897E-03

    ------------------------------------------------
       NWT REQUIRED            6 OUTER ITERATIONS 
       AND A TOTAL OF         11 INNER ITERATIONS.
    ------------------------------------------------

 NO OUTPUT CONTROL FOR STRESS PERIOD    8   TIME STEP    7
 
 SOLVING FOR HEAD 
                                                   Max.-Head-Change                         Max.-Flux-Residual
  Residual-Control   Outer-Iter.   Inner-Iter.     Column Row Layer    Maximum-Head-Change  Column Row Layer    Maximum-Flux-Residual          L2-NORM 
          0                 1           2             5    8     1       0.2065416309E-01       5    8    1         0.1132801964E+01      0.2602728173E+01
          0                 2           2             4    7     1      -0.9836545681E-01       5    8    1        -0.5359370039E+01      0.1308607273E+02
          0                 3           2             4    7     1       0.6696853941E-02       5    8    1         0.3750290746E+00      0.9172378518E+00
          0                 4           2             4    7     1      -0.1499383031E-01       5    8    1        -0.8505822350E+00      0.2083269034E+01
          0                 5           2             4    7     1       0.1839545931E-03       4    7    1         0.1072175337E-01      0.2627072040E-01
          0                 6           1             4    7     1       0.2705462980E-05       5    8    1         0.1579974071E-03      0.3874139317E-03

    ------------------------------------------------
       NWT REQUIRED            6 OUTER ITERATIONS 
       AND A TOTAL OF         11 INNER ITERATIONS.
    ------------------------------------------------

 NO OUTPUT CONTROL FOR STRESS PERIOD    8   TIME STEP    8
 
 SOLVING FOR HEAD 
                                                   Max.-Head-Change                         Max.-Flux-Residual
  Residual-Control   Outer-Iter.   Inner-Iter.     Column Row Layer    Maximum-Head-Change  Column Row Layer    Maximum-Flux-Residual          L2-NORM 
          0                 1           2             5    8     1       0.2277911748E-01       5    8    1         0.1249103538E+01      0.2857617678E+01
          0                 2           2             4    7     1      -0.9851012342E-01       5    8    1        -0.5374199574E+01      0.1311551433E+02
          0                 3           2             4    7     1       0.6706714357E-02       5    8    1         0.3760718446E+00      0.9192940344E+00
          0                 4           2             4    7     1      -0.1493788112E-01       5    8    1        -0.8474285921E+00      0.2075523460E+01
          0                 5           2             4    7     1       0.1832647246E-03       4    7    1         0.1068152602E-01      0.2617245483E-01
          0                 6           1             4    7     1       0.2695316798E-05       5    8    1         0.1574079151E-03      0.3859611000E-03

    ------------------------------------------------
       NWT REQUIRED            6 OUTER ITERATIONS 
       AND A TOTAL OF         11 INNER ITERATIONS.
    ------------------------------------------------

 NO OUTPUT CONTROL FOR STRESS PERIOD    8   TIME STEP    9
 
 SOLVING FOR HEAD 
                                                   Max.-Head-Change                         Max.-Flux-Residual
  Residual-Control   Outer-Iter.   Inner-Iter.     Column Row Layer    Maximum-Head-Change  Column Row Layer    Maximum-Flux-Residual          L2-NORM 
          0                 1           2             5    8     1       0.2479785106E-01       5    8    1         0.1359496530E+01      0.3103463942E+01
          0                 2           2             4    7     1      -0.9865673184E-01       5    8    1        -0.5388432059E+01      0.1314425638E+02
          0                 3           2             4    7     1       0.6716706949E-02       5    8    1         0.3770725358E+00      0.9213011707E+00
          0                 4           2             4    7     1      -0.1488204716E-01       5    8    1        -0.8442793987E+00      0.2067791014E+01
          0                 5           2             4    7     1       0.1826008188E-03       4    7    1         0.1064281196E-01      0.2607786264E-01
          0                 6           1             4    7     1       0.2685552589E-05       5    8    1         0.1568403472E-03      0.3845648047E-03

    ------------------------------------------------
       NWT REQUIRED            6 OUTER ITERATIONS 
       AND A TOTAL OF         11 INNER ITERATIONS.
    ------------------------------------------------

 OUTPUT CONTROL FOR STRESS PERIOD    8   TIME STEP   10
    PRINT BUDGET
    SAVE BUDGET
 UBDSV1 SAVING "         STORAGE" ON UNIT 102 AT TIME STEP 10, STRESS PERIOD   8
 UBDSV2 SAVING "   CONSTANT HEAD" ON UNIT 102 AT TIME STEP 10, STRESS PERIOD   8
 UBDSV1 SAVING "FLOW RIGHT FACE " ON UNIT 102 AT TIME STEP 10, STRESS PERIOD   8
 UBDSV1 SAVING "FLOW FRONT FACE " ON UNIT 102 AT TIME STEP 10, STRESS PERIOD   8

  HEAD DEP BOUNDS   PERIOD    8   STEP    10
 BOUNDARY      1   LAYER   1   ROW    13   COL     1   RATE   -0.287511    
 BOUNDARY      2   LAYER   1   ROW    14   COL     9   RATE    0.287957    



 STREAM LISTING     PERIOD      8   STEP       10

 LAYER ROW COL. STREAM  RCH.  FLOW INTO     FLOW TO   FLOW OUT OF   OVRLND.     DIRECT     STREAM       STREAM     STREAM     STREAM   STREAMBED  STREAMBED
                SEG.NO.  NO.  STRM. RCH.    AQUIFER    STRM. RCH.    RUNOFF     PRECIP       ET          HEAD       DEPTH      WIDTH   CONDCTNC.   GRADIENT

   1    1    1     1     1    2.8125E+01  2.5915E-01   2.7866E+01  0.000E+00  0.000E+00  0.000E+00  1.09427E+03  1.223E+00  1.364E+01  6.137E-02  1.408E+00
   1    2    2     1     2    2.7866E+01  4.0087E-01   2.7465E+01  0.000E+00  0.000E+00  0.000E+00  1.08928E+03  1.218E+00  1.358E+01  9.503E-02  1.406E+00
   1    3    3     1     3    2.7465E+01  3.4143E-01   2.7124E+01  0.000E+00  0.000E+00  0.000E+00  1.08363E+03  1.213E+00  1.351E+01  8.104E-02  1.404E+00
   1    3    4     1     4    2.7124E+01  3.1403E-01   2.6810E+01  0.000E+00  0.000E+00  0.000E+00  1.07862E+03  1.209E+00  1.344E+01  7.461E-02  1.403E+00
   1    4    5     2     1    2.4810E+01  3.2739E-01   2.4482E+01  0.000E+00  0.000E+00  0.000E+00  1.07313E+03  1.197E+00  1.200E+01  7.800E-02  1.399E+00
   1    5    6     2     2    2.4482E+01  2.5133E-01   2.4231E+01  0.000E+00  0.000E+00  0.000E+00  1.06770E+03  1.189E+00  1.200E+01  6.000E-02  1.396E+00
   1    6    6     2     3    2.4231E+01  2.5089E-01   2.3980E+01  0.000E+00  0.000E+00  0.000E+00  1.06297E+03  1.181E+00  1.200E+01  6.000E-02  1.394E+00
   1    7    6     2     4    2.3980E+01  2.5044E-01   2.3730E+01  0.000E+00  0.000E+00  0.000E+00  1.05825E+03  1.174E+00  1.200E+01  6.000E-02  1.391E+00
   1    8    6     2     5    2.3730E+01  2.5000E-01   2.3480E+01  0.000E+00  0.000E+00  0.000E+00  1.05353E+03  1.167E+00  1.200E+01  6.000E-02  1.389E+00
   1    3    5     3     1    2.0000E+00  2.8252E-01   1.7175E+00  0.000E+00  0.000E+00  0.000E+00  1.07555E+03  1.909E+00  9.636E+00  7.227E-02  1.955E+00
   1    3    6     3     2    1.7175E+00  2.4905E-01   1.4684E+00  0.000E+00  0.000E+00  0.000E+00  1.07264E+03  1.727E+00  8.909E+00  6.682E-02  1.864E+00
   1    3    7     3     3    1.4684E+00  1.9718E-01   1.2712E+00  0.000E+00  0.000E+00  0.000E+00  1.06987E+03  1.555E+00  8.218E+00  5.547E-02  1.777E+00
   1    4    8     3     4    1.2712E+00  2.2567E-01   1.0456E+00  0.000E+00  0.000E+00  0.000E+00  1.06682E+03  1.364E+00  7.455E+00  6.709E-02  1.682E+00
   1    5    8     3     5    1.0456E+00  1.5790E-01   8.8768E-01  0.000E+00  0.000E+00  0.000E+00  1.06362E+03  1.164E+00  6.655E+00  4.991E-02  1.582E+00
   1    6    8     3     6    8.8768E-01  5.5980E-02   8.3170E-01  0.000E+00  0.000E+00  0.000E+00  1.06158E+03  1.036E+00  6.145E+00  1.844E-02  1.518E+00
   1    5   10     4     1    1.0000E+01  9.0919E-02   9.9091E+00  0.000E+00  0.000E+00  0.000E+00  1.07836E+03  6.368E-01  1.000E+01  2.500E-02  1.212E+00
   1    5    9     4     2    9.9091E+00  1.8158E-01   9.7275E+00  0.000E+00  0.000E+00  0.000E+00  1.07154E+03  6.315E-01  1.000E+01  5.000E-02  1.211E+00
   1    6    8     4     3    9.7275E+00  1.2689E-01   9.6006E+00  0.000E+00  0.000E+00  0.000E+00  1.06381E+03  6.256E-01  1.000E+01  3.500E-02  1.209E+00
   1    6    8     5     1    1.0432E+01  2.2686E-01   1.0205E+01  0.000E+00  0.000E+00  0.000E+00  1.05868E+03  6.790E-01  1.542E+01  6.166E-02  1.226E+00
   1    7    7     5     2    1.0205E+01  2.7894E-01   9.9265E+00  0.000E+00  0.000E+00  0.000E+00  1.05417E+03  6.732E-01  1.519E+01  7.594E-02  1.224E+00
   1    8    7     5     3    9.9265E+00  1.9221E-01   9.7343E+00  0.000E+00  0.000E+00  0.000E+00  1.04992E+03  6.676E-01  1.497E+01  5.241E-02  1.223E+00
   1    8    6     5     4    9.7343E+00  1.3577E-01   9.5985E+00  0.000E+00  0.000E+00  0.000E+00  1.04691E+03  6.637E-01  1.482E+01  3.706E-02  1.221E+00
   1    9    6     6     1    9.5985E+00  2.2097E-01   9.3776E+00  0.000E+00  0.000E+00  0.000E+00  1.04341E+03  6.828E-01  1.200E+01  6.000E-02  1.228E+00
   1   10    7     6     2    9.3776E+00  2.2039E-01   9.1572E+00  0.000E+00  0.000E+00  0.000E+00  1.03885E+03  6.732E-01  1.200E+01  6.000E-02  1.224E+00
   1   11    7     6     3    9.1572E+00  2.1981E-01   8.9374E+00  0.000E+00  0.000E+00  0.000E+00  1.03430E+03  6.636E-01  1.200E+01  6.000E-02  1.221E+00
   1   12    7     6     4    8.9374E+00  2.1923E-01   8.7181E+00  0.000E+00  0.000E+00  0.000E+00  1.02974E+03  6.539E-01  1.200E+01  6.000E-02  1.218E+00
   1   13    7     6     5    8.7181E+00 -6.8972E-02   8.7871E+00  0.000E+00  0.000E+00  0.000E+00  1.02656E+03  6.505E-01  1.200E+01  2.400E-01 -9.579E-02
   1   14    9     7     1    1.5000E+02  1.3681E+00   1.4863E+02  0.000E+00  0.000E+00  0.000E+00  1.03987E+03  2.288E+00  5.529E+01  5.593E-01  8.154E-01
   1   13    8     7     2    1.4863E+02  1.9154E+00   1.4672E+02  0.000E+00  0.000E+00  0.000E+00  1.03478E+03  2.279E+00  5.526E+01  6.148E-01  1.039E+00
   1   13    7     7     3    1.4672E+02  1.5869E+00   1.4513E+02  0.000E+00  0.000E+00  0.000E+00  1.02969E+03  2.270E+00  5.521E+01  5.584E-01  9.473E-01
   1   13    6     8     1    1.5392E+02  9.3655E-01   1.5298E+02  0.000E+00  0.000E+00  0.000E+00  1.02472E+03  2.841E+00  4.119E+01  4.198E-01  7.437E-01
   1   13    5     8     2    1.5298E+02  1.9818E-01   1.5278E+02  0.000E+00  0.000E+00  0.000E+00  1.01846E+03  2.837E+00  4.114E+01  4.192E-01  1.576E-01
   1   13    4     8     3    1.5278E+02 -2.3668E+00   1.5515E+02  0.000E+00  0.000E+00  0.000E+00  1.01222E+03  2.845E+00  4.125E+01  4.203E+00 -1.877E-01
   1   13    3     8     4    1.5515E+02 -3.6261E+00   1.5877E+02  0.000E+00  0.000E+00  0.000E+00  1.00599E+03  2.865E+00  4.154E+01  4.234E+00 -2.855E-01
   1   13    2     8     5    1.5877E+02 -2.6183E+00   1.6139E+02  0.000E+00  0.000E+00  0.000E+00  9.99761E+02  2.886E+00  4.185E+01  4.265E+00 -2.046E-01
   1   13    1     8     6    1.6139E+02 -2.0301E+00   1.6342E+02  0.000E+00  0.000E+00  0.000E+00  9.94777E+02  2.902E+00  4.208E+01  2.573E+00 -2.630E-01
   1    8    6     9     1    2.3480E+01  0.0000E+00   2.3480E+01  0.000E+00  0.000E+00  0.000E+00  1.08253E+03  3.782E+00  4.000E+00  0.000E+00  2.261E+00
   1    8    5     9     2    2.3480E+01  0.0000E+00   2.3480E+01  0.000E+00  0.000E+00  0.000E+00  1.08203E+03  3.782E+00  4.000E+00  0.000E+00  2.261E+00



 UBDSV3 SAVING "           GW ET" ON UNIT  61 AT TIME STEP 10, STRESS PERIOD   8
 UBDSV3 SAVING "    UZF RECHARGE" ON UNIT  61 AT TIME STEP 10, STRESS PERIOD   8
 UBDSV3 SAVING " SURFACE LEAKAGE" ON UNIT  61 AT TIME STEP 10, STRESS PERIOD   8
 UBDSV3 SAVING "       HORT+DUNN" ON UNIT  61 AT TIME STEP 10, STRESS PERIOD   8
 UBDSV3 SAVING "  STORAGE CHANGE" ON UNIT  61 AT TIME STEP 10, STRESS PERIOD   8


UNSATURATED ZONE PACKAGE VOLUMETRIC BUDGET FOR  TIME STEP    10 STRESS PERIOD    8
  ------------------------------------------------------------------------------



     CUMULATIVE VOLUMES      L**3       RATES FOR THIS TIME STEP      L**3/T
     ------------------                 ------------------------

           IN:                                      IN:
           ---                                      ---
        INFILTRATION =   156720529.3036          INFILTRATION =          60.8164

          OUT:                                     OUT:
          ----                                     ----
              UZF ET =   155115468.5143                UZF ET =          60.8175
        UZF RECHARGE =       73224.0000          UZF RECHARGE =       0.0000E+00

            IN - OUT =     1531836.7894              IN - OUT =      -1.1330E-03

          STORAGE:                                 STORAGE:
          --------                                 --------
      STORAGE CHANGE =     1531834.4348        STORAGE CHANGE =      -1.1278E-03

 PERCENT DISCREPANCY IS DIFFERENCE BETWEEN IN-OUT MINUS CHANGE IN STORAGE
 DIVIDED BY THE AVERAGE OF IN AND OUT TIMES 100

 PERCENT DISCREPANCY =           0.00     PERCENT DISCREPANCY =          -0.00






 

        AG WELLS          PERIOD    8   STEP  10
 AG WELL      1   LAYER   1   ROW     6   COL     4   RATE    -6.08147    
 AG WELL      2   LAYER   1   ROW     6   COL     5   RATE    -6.08147    
 AG WELL      3   LAYER   1   ROW     7   COL     4   RATE    -6.08147    
 AG WELL      4   LAYER   1   ROW     7   COL     5   RATE    -6.08147    
 AG WELL      5   LAYER   1   ROW     8   COL     4   RATE    -6.08147    
 AG WELL      6   LAYER   1   ROW     8   COL     5   RATE    -6.08147    
 
 

   DIVERSION SEGMENTS     PERIOD    8   STEP  10
 SEGMENT      9   RATE     23.4796    
 
 

        SW IRRIGATION     PERIOD    8   STEP  10
 SEGMENT      9   ROW     6   COL     4   RATE     3.91334    
 SEGMENT      9   ROW     6   COL     5   RATE     3.91334    
 SEGMENT      9   ROW     7   COL     4   RATE     3.91334    
 SEGMENT      9   ROW     7   COL     5   RATE     3.91334    
 SEGMENT      9   ROW     8   COL     4   RATE     3.91334    
 SEGMENT      9   ROW     8   COL     5   RATE     3.91334    
 
 

        GW IRRIGATION     PERIOD    8   STEP  10
 AG WELL      1   ROW     6   COL     4   RATE     6.08147    
 AG WELL      2   ROW     6   COL     5   RATE     6.08147    
 AG WELL      3   ROW     7   COL     4   RATE     6.08147    
 AG WELL      4   ROW     7   COL     5   RATE     6.08147    
 AG WELL      5   ROW     8   COL     4   RATE     6.08147    
 AG WELL      6   ROW     8   COL     5   RATE     6.08147    
 
1
  VOLUMETRIC BUDGET FOR AGRICULTURAL FIELDS AT  END OF TIME STEP   10, STRESS PERIOD   8
  ------------------------------------------------------------------------------

     CUMULATIVE VOLUMES      L**3       RATES FOR THIS TIME STEP      L**3/T
     ------------------                 ------------------------

           IN:                                      IN:
           ---                                      ---
           AG WELLS      =    34221644.0000             AG WELLS      =          36.4888
      DIVERSION SEGMENTS =   108320784.0000        DIVERSION SEGMENTS =          23.4796
           GW IRRIGATION =           0.0000             GW IRRIGATION =           0.0000
           SW IRRIGATION =           0.0000             SW IRRIGATION =           0.0000
        SYSTEM LOSSES GW =           0.0000          SYSTEM LOSSES GW =           0.0000
        SYSTEM LOSSES SW =           0.0000          SYSTEM LOSSES SW =           0.0000

                TOTAL IN =   142542432.0000                  TOTAL IN =          59.9684

          OUT:                                     OUT:
          ----                                     ----
           AG WELLS      =           0.0000             AG WELLS      =           0.0000
      DIVERSION SEGMENTS =           0.0000        DIVERSION SEGMENTS =           0.0000
           GW IRRIGATION =    34221644.0000             GW IRRIGATION =          36.4888
           SW IRRIGATION =   108322928.0000             SW IRRIGATION =          23.4801
        SYSTEM LOSSES GW =           0.0000          SYSTEM LOSSES GW =           0.0000
        SYSTEM LOSSES SW =           0.0000          SYSTEM LOSSES SW =           0.0000

               TOTAL OUT =   142544576.0000                 TOTAL OUT =          59.9689

                IN - OUT =       -2144.0000                  IN - OUT =      -4.6921E-04

     PERCENT DISCREPANCY =          -0.00         PERCENT DISCREPANCY =          -0.00



1
  VOLUMETRIC BUDGET FOR ENTIRE MODEL AT END OF TIME STEP   10, STRESS PERIOD   8
  ------------------------------------------------------------------------------

     CUMULATIVE VOLUMES      L**3       RATES FOR THIS TIME STEP      L**3/T
     ------------------                 ------------------------

           IN:                                      IN:
           ---                                      ---
             STORAGE     =    45056956.0000               STORAGE     =          36.3712
       CONSTANT HEAD     =           0.0000         CONSTANT HEAD     =           0.0000
     HEAD DEP BOUNDS     =     4819908.0000       HEAD DEP BOUNDS     =           0.2880
      STREAM LEAKAGE     =   198451968.0000        STREAM LEAKAGE     =          11.9326
        UZF RECHARGE     =       73223.9531          UZF RECHARGE     =           0.0000
               GW ET     =           0.0000                 GW ET     =           0.0000
     SURFACE LEAKAGE     =           0.0000       SURFACE LEAKAGE     =           0.0000
           AG WELLS      =           0.0000             AG WELLS      =           0.0000

                TOTAL IN =   248402048.0000                  TOTAL IN =          48.5917

          OUT:                                     OUT:
          ----                                     ----
             STORAGE     =    36666184.0000               STORAGE     =           1.1051
       CONSTANT HEAD     =           0.0000         CONSTANT HEAD     =           0.0000
     HEAD DEP BOUNDS     =     4830366.5000       HEAD DEP BOUNDS     =           0.2875
      STREAM LEAKAGE     =   172686912.0000        STREAM LEAKAGE     =          10.7102
        UZF RECHARGE     =           0.0000          UZF RECHARGE     =           0.0000
               GW ET     =           0.0000                 GW ET     =           0.0000
     SURFACE LEAKAGE     =           0.0000       SURFACE LEAKAGE     =           0.0000
           AG WELLS      =    34221644.0000             AG WELLS      =          36.4888

               TOTAL OUT =   248405104.0000                 TOTAL OUT =          48.5917

                IN - OUT =       -3056.0000                  IN - OUT =       1.9073E-05

     PERCENT DISCREPANCY =          -0.00         PERCENT DISCREPANCY =           0.00






         TIME SUMMARY AT END OF TIME STEP   10 IN STRESS PERIOD    8
                    SECONDS     MINUTES      HOURS       DAYS        YEARS
                    -----------------------------------------------------------
   TIME STEP LENGTH  87667.      1461.1      24.352      1.0147     2.77799E-03
 STRESS PERIOD TIME 8.76667E+05  14611.      243.52      10.147     2.77799E-02
         TOTAL TIME 1.67431E+07 2.79052E+05  4650.9      193.79     0.53056    
1
 
 SOLVING FOR HEAD 
                                                   Max.-Head-Change                         Max.-Flux-Residual
  Residual-Control   Outer-Iter.   Inner-Iter.     Column Row Layer    Maximum-Head-Change  Column Row Layer    Maximum-Flux-Residual          L2-NORM 
          0                 1           2             5    8     1       0.2671752282E-01       5    8    1         0.1464382806E+01      0.3340306669E+01
          0                 2           2             4    7     1      -0.9880498182E-01       5    8    1        -0.5402107202E+01      0.1317232532E+02
          0                 3           2             4    7     1       0.6726793989E-02       5    8    1         0.3780329939E+00      0.9232615725E+00
          0                 4           2             4    7     1      -0.1482630159E-01       5    8    1        -0.8411333017E+00      0.2060068155E+01
          0                 5           2             4    7     1       0.1818807389E-03       4    7    1         0.1060082079E-01      0.2597522982E-01
          0                 6           1             4    7     1       0.2674962263E-05       5    8    1         0.1562242733E-03      0.3830905088E-03

    ------------------------------------------------
       NWT REQUIRED            6 OUTER ITERATIONS 
       AND A TOTAL OF         11 INNER ITERATIONS.
    ------------------------------------------------

 NO OUTPUT CONTROL FOR STRESS PERIOD    8   TIME STEP   11
 
 SOLVING FOR HEAD 
                                                   Max.-Head-Change                         Max.-Flux-Residual
  Residual-Control   Outer-Iter.   Inner-Iter.     Column Row Layer    Maximum-Head-Change  Column Row Layer    Maximum-Flux-Residual          L2-NORM 
          0                 1           2             5    8     1       0.2854432283E-01       5    8    1         0.1564109991E+01      0.3568357156E+01
          0                 2           2             4    7     1      -0.9895467184E-01       5    8    1        -0.5415260716E+01      0.1319975094E+02
          0                 3           2             4    7     1       0.6736060833E-02       5    8    1         0.3790124900E+00      0.9250971920E+00
          0                 4           2             4    7     1      -0.1477065632E-01       5    6    1        -0.8379900447E+00      0.2052238986E+01
          0                 5           2             5    8     1       0.1855577446E-03       5    8    1         0.1111103878E-01      0.2611127949E-01
          0                 6           1             5    8     1       0.2729040775E-05       5    8    1         0.1636052048E-03      0.3848828819E-03

    ------------------------------------------------
       NWT REQUIRED            6 OUTER ITERATIONS 
       AND A TOTAL OF         11 INNER ITERATIONS.
    ------------------------------------------------

 NO OUTPUT CONTROL FOR STRESS PERIOD    8   TIME STEP   12
 
 SOLVING FOR HEAD 
                                                   Max.-Head-Change                         Max.-Flux-Residual
  Residual-Control   Outer-Iter.   Inner-Iter.     Column Row Layer    Maximum-Head-Change  Column Row Layer    Maximum-Flux-Residual          L2-NORM 
          0                 1           2             5    8     1       0.3025143050E-01       5    8    1         0.1659530038E+01      0.3788254675E+01
          0                 2           2             4    7     1      -0.9910649894E-01       5    6    1        -0.5427307985E+01      0.1322585743E+02
          0                 3           2             5    8     1       0.6768742765E-02       5    8    1         0.3835764036E+00      0.9286171045E+00
          0                 4           2             4    7     1      -0.1471519087E-01       5    8    1        -0.8350125196E+00      0.2044731783E+01
          0                 5           2             4    7     1       0.1805598924E-03       4    7    1         0.1052379089E-01      0.2580608768E-01
          0                 6           1             4    7     1       0.2655536117E-05       5    8    1         0.1565157543E-03      0.3926695148E-03

    ------------------------------------------------
       NWT REQUIRED            6 OUTER ITERATIONS 
       AND A TOTAL OF         11 INNER ITERATIONS.
    ------------------------------------------------

 NO OUTPUT CONTROL FOR STRESS PERIOD    8   TIME STEP   13
 
 SOLVING FOR HEAD 
                                                   Max.-Head-Change                         Max.-Flux-Residual
  Residual-Control   Outer-Iter.   Inner-Iter.     Column Row Layer    Maximum-Head-Change  Column Row Layer    Maximum-Flux-Residual          L2-NORM 
          0                 1           2             5    8     1       0.3196897709E-01       5    8    1         0.1753364776E+01      0.4001851995E+01
          0                 2           2             4    7     1      -0.9925836268E-01       5    8    1        -0.5440575594E+01      0.1325306546E+02
          0                 3           2             4    7     1       0.6757662844E-02       5    8    1         0.3807518047E+00      0.9289092100E+00
          0                 4           2             4    7     1      -0.1465979919E-01       5    8    1        -0.8317284164E+00      0.2036988937E+01
          0                 5           2             4    7     1       0.1798850776E-03       4    7    1         0.1048443956E-01      0.2569223880E-01
          0                 6           1             4    7     1       0.2645611950E-05       5    8    1         0.1545399105E-03      0.3788975393E-03

    ------------------------------------------------
       NWT REQUIRED            6 OUTER ITERATIONS 
       AND A TOTAL OF         11 INNER ITERATIONS.
    ------------------------------------------------

 NO OUTPUT CONTROL FOR STRESS PERIOD    8   TIME STEP   14
 
 SOLVING FOR HEAD 
                                                   Max.-Head-Change                         Max.-Flux-Residual
  Residual-Control   Outer-Iter.   Inner-Iter.     Column Row Layer    Maximum-Head-Change  Column Row Layer    Maximum-Flux-Residual          L2-NORM 
          0                 1           2             5    8     1       0.3360416335E-01       5    8    1         0.1842621534E+01      0.4207514363E+01
          0                 2           2             4    7     1      -0.9941104047E-01       5    8    1        -0.5452663061E+01      0.1327885665E+02
          0                 3           2             4    7     1       0.6768052513E-02       5    8    1         0.3816005625E+00      0.9307087442E+00
          0                 4           2             4    7     1      -0.1460451190E-01       5    8    1        -0.8286029558E+00      0.2029320948E+01
          0                 5           2             4    7     1       0.1792115501E-03       4    7    1         0.1044516261E-01      0.2559499001E-01
          0                 6           1             4    7     1       0.2635706042E-05       5    8    1         0.1539628627E-03      0.3774547916E-03

    ------------------------------------------------
       NWT REQUIRED            6 OUTER ITERATIONS 
       AND A TOTAL OF         11 INNER ITERATIONS.
    ------------------------------------------------

 OUTPUT CONTROL FOR STRESS PERIOD    8   TIME STEP   15
    PRINT BUDGET
    SAVE BUDGET
 UBDSV1 SAVING "         STORAGE" ON UNIT 102 AT TIME STEP 15, STRESS PERIOD   8
 UBDSV2 SAVING "   CONSTANT HEAD" ON UNIT 102 AT TIME STEP 15, STRESS PERIOD   8
 UBDSV1 SAVING "FLOW RIGHT FACE " ON UNIT 102 AT TIME STEP 15, STRESS PERIOD   8
 UBDSV1 SAVING "FLOW FRONT FACE " ON UNIT 102 AT TIME STEP 15, STRESS PERIOD   8

  HEAD DEP BOUNDS   PERIOD    8   STEP    15
 BOUNDARY      1   LAYER   1   ROW    13   COL     1   RATE   -0.287321    
 BOUNDARY      2   LAYER   1   ROW    14   COL     9   RATE    0.287959    



 STREAM LISTING     PERIOD      8   STEP       15

 LAYER ROW COL. STREAM  RCH.  FLOW INTO     FLOW TO   FLOW OUT OF   OVRLND.     DIRECT     STREAM       STREAM     STREAM     STREAM   STREAMBED  STREAMBED
                SEG.NO.  NO.  STRM. RCH.    AQUIFER    STRM. RCH.    RUNOFF     PRECIP       ET          HEAD       DEPTH      WIDTH   CONDCTNC.   GRADIENT

   1    1    1     1     1    2.8125E+01  2.5915E-01   2.7866E+01  0.000E+00  0.000E+00  0.000E+00  1.09427E+03  1.223E+00  1.364E+01  6.137E-02  1.408E+00
   1    2    2     1     2    2.7866E+01  4.0087E-01   2.7465E+01  0.000E+00  0.000E+00  0.000E+00  1.08928E+03  1.218E+00  1.358E+01  9.503E-02  1.406E+00
   1    3    3     1     3    2.7465E+01  3.4142E-01   2.7123E+01  0.000E+00  0.000E+00  0.000E+00  1.08363E+03  1.213E+00  1.351E+01  8.103E-02  1.404E+00
   1    3    4     1     4    2.7123E+01  3.1403E-01   2.6809E+01  0.000E+00  0.000E+00  0.000E+00  1.07862E+03  1.209E+00  1.344E+01  7.461E-02  1.403E+00
   1    4    5     2     1    2.4809E+01  3.2739E-01   2.4482E+01  0.000E+00  0.000E+00  0.000E+00  1.07313E+03  1.197E+00  1.200E+01  7.800E-02  1.399E+00
   1    5    6     2     2    2.4482E+01  2.5133E-01   2.4231E+01  0.000E+00  0.000E+00  0.000E+00  1.06770E+03  1.189E+00  1.200E+01  6.000E-02  1.396E+00
   1    6    6     2     3    2.4231E+01  2.5089E-01   2.3980E+01  0.000E+00  0.000E+00  0.000E+00  1.06297E+03  1.181E+00  1.200E+01  6.000E-02  1.394E+00
   1    7    6     2     4    2.3980E+01  2.5044E-01   2.3729E+01  0.000E+00  0.000E+00  0.000E+00  1.05825E+03  1.174E+00  1.200E+01  6.000E-02  1.391E+00
   1    8    6     2     5    2.3729E+01  2.5000E-01   2.3479E+01  0.000E+00  0.000E+00  0.000E+00  1.05353E+03  1.167E+00  1.200E+01  6.000E-02  1.389E+00
   1    3    5     3     1    2.0000E+00  2.8252E-01   1.7175E+00  0.000E+00  0.000E+00  0.000E+00  1.07555E+03  1.909E+00  9.636E+00  7.227E-02  1.955E+00
   1    3    6     3     2    1.7175E+00  2.4905E-01   1.4684E+00  0.000E+00  0.000E+00  0.000E+00  1.07264E+03  1.727E+00  8.909E+00  6.682E-02  1.864E+00
   1    3    7     3     3    1.4684E+00  1.9718E-01   1.2712E+00  0.000E+00  0.000E+00  0.000E+00  1.06987E+03  1.555E+00  8.218E+00  5.547E-02  1.777E+00
   1    4    8     3     4    1.2712E+00  2.2567E-01   1.0456E+00  0.000E+00  0.000E+00  0.000E+00  1.06682E+03  1.364E+00  7.455E+00  6.709E-02  1.682E+00
   1    5    8     3     5    1.0456E+00  1.5790E-01   8.8768E-01  0.000E+00  0.000E+00  0.000E+00  1.06362E+03  1.164E+00  6.655E+00  4.991E-02  1.582E+00
   1    6    8     3     6    8.8768E-01  5.5980E-02   8.3170E-01  0.000E+00  0.000E+00  0.000E+00  1.06158E+03  1.036E+00  6.145E+00  1.844E-02  1.518E+00
   1    5   10     4     1    1.0000E+01  9.0919E-02   9.9091E+00  0.000E+00  0.000E+00  0.000E+00  1.07836E+03  6.368E-01  1.000E+01  2.500E-02  1.212E+00
   1    5    9     4     2    9.9091E+00  1.8158E-01   9.7275E+00  0.000E+00  0.000E+00  0.000E+00  1.07154E+03  6.315E-01  1.000E+01  5.000E-02  1.211E+00
   1    6    8     4     3    9.7275E+00  1.2689E-01   9.6006E+00  0.000E+00  0.000E+00  0.000E+00  1.06381E+03  6.256E-01  1.000E+01  3.500E-02  1.209E+00
   1    6    8     5     1    1.0432E+01  2.2686E-01   1.0205E+01  0.000E+00  0.000E+00  0.000E+00  1.05868E+03  6.790E-01  1.542E+01  6.166E-02  1.226E+00
   1    7    7     5     2    1.0205E+01  2.7894E-01   9.9265E+00  0.000E+00  0.000E+00  0.000E+00  1.05417E+03  6.732E-01  1.519E+01  7.594E-02  1.224E+00
   1    8    7     5     3    9.9265E+00  1.9221E-01   9.7343E+00  0.000E+00  0.000E+00  0.000E+00  1.04992E+03  6.676E-01  1.497E+01  5.241E-02  1.223E+00
   1    8    6     5     4    9.7343E+00  1.3577E-01   9.5985E+00  0.000E+00  0.000E+00  0.000E+00  1.04691E+03  6.637E-01  1.482E+01  3.706E-02  1.221E+00
   1    9    6     6     1    9.5985E+00  2.2097E-01   9.3776E+00  0.000E+00  0.000E+00  0.000E+00  1.04341E+03  6.828E-01  1.200E+01  6.000E-02  1.228E+00
   1   10    7     6     2    9.3776E+00  2.2039E-01   9.1572E+00  0.000E+00  0.000E+00  0.000E+00  1.03885E+03  6.732E-01  1.200E+01  6.000E-02  1.224E+00
   1   11    7     6     3    9.1572E+00  2.1981E-01   8.9374E+00  0.000E+00  0.000E+00  0.000E+00  1.03430E+03  6.636E-01  1.200E+01  6.000E-02  1.221E+00
   1   12    7     6     4    8.9374E+00  2.1923E-01   8.7181E+00  0.000E+00  0.000E+00  0.000E+00  1.02974E+03  6.539E-01  1.200E+01  6.000E-02  1.218E+00
   1   13    7     6     5    8.7181E+00 -6.8243E-02   8.7864E+00  0.000E+00  0.000E+00  0.000E+00  1.02656E+03  6.505E-01  1.200E+01  2.400E-01 -9.478E-02
   1   14    9     7     1    1.5000E+02  1.3681E+00   1.4863E+02  0.000E+00  0.000E+00  0.000E+00  1.03987E+03  2.288E+00  5.529E+01  5.593E-01  8.154E-01
   1   13    8     7     2    1.4863E+02  1.9157E+00   1.4672E+02  0.000E+00  0.000E+00  0.000E+00  1.03478E+03  2.279E+00  5.526E+01  6.148E-01  1.039E+00
   1   13    7     7     3    1.4672E+02  1.5886E+00   1.4513E+02  0.000E+00  0.000E+00  0.000E+00  1.02969E+03  2.270E+00  5.521E+01  5.584E-01  9.483E-01
   1   13    6     8     1    1.5391E+02  9.3788E-01   1.5298E+02  0.000E+00  0.000E+00  0.000E+00  1.02472E+03  2.841E+00  4.119E+01  4.198E-01  7.447E-01
   1   13    5     8     2    1.5298E+02  1.9958E-01   1.5278E+02  0.000E+00  0.000E+00  0.000E+00  1.01846E+03  2.837E+00  4.114E+01  4.192E-01  1.587E-01
   1   13    4     8     3    1.5278E+02 -2.3527E+00   1.5513E+02  0.000E+00  0.000E+00  0.000E+00  1.01222E+03  2.844E+00  4.124E+01  4.203E+00 -1.866E-01
   1   13    3     8     4    1.5513E+02 -3.6117E+00   1.5874E+02  0.000E+00  0.000E+00  0.000E+00  1.00599E+03  2.865E+00  4.154E+01  4.233E+00 -2.844E-01
   1   13    2     8     5    1.5874E+02 -2.6011E+00   1.6134E+02  0.000E+00  0.000E+00  0.000E+00  9.99761E+02  2.886E+00  4.185E+01  4.265E+00 -2.033E-01
   1   13    1     8     6    1.6134E+02 -2.0179E+00   1.6336E+02  0.000E+00  0.000E+00  0.000E+00  9.94777E+02  2.902E+00  4.207E+01  2.573E+00 -2.615E-01
   1    8    6     9     1    2.3479E+01  0.0000E+00   2.3479E+01  0.000E+00  0.000E+00  0.000E+00  1.08253E+03  3.782E+00  4.000E+00  0.000E+00  2.261E+00
   1    8    5     9     2    2.3479E+01  0.0000E+00   2.3479E+01  0.000E+00  0.000E+00  0.000E+00  1.08203E+03  3.782E+00  4.000E+00  0.000E+00  2.261E+00



 UBDSV3 SAVING "           GW ET" ON UNIT  61 AT TIME STEP 15, STRESS PERIOD   8
 UBDSV3 SAVING "    UZF RECHARGE" ON UNIT  61 AT TIME STEP 15, STRESS PERIOD   8
 UBDSV3 SAVING " SURFACE LEAKAGE" ON UNIT  61 AT TIME STEP 15, STRESS PERIOD   8
 UBDSV3 SAVING "       HORT+DUNN" ON UNIT  61 AT TIME STEP 15, STRESS PERIOD   8
 UBDSV3 SAVING "  STORAGE CHANGE" ON UNIT  61 AT TIME STEP 15, STRESS PERIOD   8


UNSATURATED ZONE PACKAGE VOLUMETRIC BUDGET FOR  TIME STEP    15 STRESS PERIOD    8
  ------------------------------------------------------------------------------



     CUMULATIVE VOLUMES      L**3       RATES FOR THIS TIME STEP      L**3/T
     ------------------                 ------------------------

           IN:                                      IN:
           ---                                      ---
        INFILTRATION =   183378382.5331          INFILTRATION =          60.8164

          OUT:                                     OUT:
          ----                                     ----
              UZF ET =   181773806.6187                UZF ET =          60.8175
        UZF RECHARGE =       73224.0000          UZF RECHARGE =       0.0000E+00

            IN - OUT =     1531351.9144              IN - OUT =      -1.0929E-03

          STORAGE:                                 STORAGE:
          --------                                 --------
      STORAGE CHANGE =     1531349.8848        STORAGE CHANGE =      -1.0907E-03

 PERCENT DISCREPANCY IS DIFFERENCE BETWEEN IN-OUT MINUS CHANGE IN STORAGE
 DIVIDED BY THE AVERAGE OF IN AND OUT TIMES 100

 PERCENT DISCREPANCY =           0.00     PERCENT DISCREPANCY =           0.00






 

        AG WELLS          PERIOD    8   STEP  15
 AG WELL      1   LAYER   1   ROW     6   COL     4   RATE    -6.08153    
 AG WELL      2   LAYER   1   ROW     6   COL     5   RATE    -6.08153    
 AG WELL      3   LAYER   1   ROW     7   COL     4   RATE    -6.08153    
 AG WELL      4   LAYER   1   ROW     7   COL     5   RATE    -6.08153    
 AG WELL      5   LAYER   1   ROW     8   COL     4   RATE    -6.08153    
 AG WELL      6   LAYER   1   ROW     8   COL     5   RATE    -6.08153    
 
 

   DIVERSION SEGMENTS     PERIOD    8   STEP  15
 SEGMENT      9   RATE     23.4793    
 
 

        SW IRRIGATION     PERIOD    8   STEP  15
 SEGMENT      9   ROW     6   COL     4   RATE     3.91329    
 SEGMENT      9   ROW     6   COL     5   RATE     3.91329    
 SEGMENT      9   ROW     7   COL     4   RATE     3.91329    
 SEGMENT      9   ROW     7   COL     5   RATE     3.91329    
 SEGMENT      9   ROW     8   COL     4   RATE     3.91329    
 SEGMENT      9   ROW     8   COL     5   RATE     3.91329    
 
 

        GW IRRIGATION     PERIOD    8   STEP  15
 AG WELL      1   ROW     6   COL     4   RATE     6.08153    
 AG WELL      2   ROW     6   COL     5   RATE     6.08153    
 AG WELL      3   ROW     7   COL     4   RATE     6.08153    
 AG WELL      4   ROW     7   COL     5   RATE     6.08153    
 AG WELL      5   ROW     8   COL     4   RATE     6.08153    
 AG WELL      6   ROW     8   COL     5   RATE     6.08153    
 
1
  VOLUMETRIC BUDGET FOR AGRICULTURAL FIELDS AT  END OF TIME STEP   15, STRESS PERIOD   8
  ------------------------------------------------------------------------------

     CUMULATIVE VOLUMES      L**3       RATES FOR THIS TIME STEP      L**3/T
     ------------------                 ------------------------

           IN:                                      IN:
           ---                                      ---
           AG WELLS      =    50216024.0000             AG WELLS      =          36.4892
      DIVERSION SEGMENTS =   118612568.0000        DIVERSION SEGMENTS =          23.4793
           GW IRRIGATION =           0.0000             GW IRRIGATION =           0.0000
           SW IRRIGATION =           0.0000             SW IRRIGATION =           0.0000
        SYSTEM LOSSES GW =           0.0000          SYSTEM LOSSES GW =           0.0000
        SYSTEM LOSSES SW =           0.0000          SYSTEM LOSSES SW =           0.0000

                TOTAL IN =   168828592.0000                  TOTAL IN =          59.9684

          OUT:                                     OUT:
          ----                                     ----
           AG WELLS      =           0.0000             AG WELLS      =           0.0000
      DIVERSION SEGMENTS =           0.0000        DIVERSION SEGMENTS =           0.0000
           GW IRRIGATION =    50216024.0000             GW IRRIGATION =          36.4892
           SW IRRIGATION =   118614912.0000             SW IRRIGATION =          23.4797
        SYSTEM LOSSES GW =           0.0000          SYSTEM LOSSES GW =           0.0000
        SYSTEM LOSSES SW =           0.0000          SYSTEM LOSSES SW =           0.0000

               TOTAL OUT =   168830944.0000                 TOTAL OUT =          59.9689

                IN - OUT =       -2352.0000                  IN - OUT =      -4.6921E-04

     PERCENT DISCREPANCY =          -0.00         PERCENT DISCREPANCY =          -0.00



1
  VOLUMETRIC BUDGET FOR ENTIRE MODEL AT END OF TIME STEP   15, STRESS PERIOD   8
  ------------------------------------------------------------------------------

     CUMULATIVE VOLUMES      L**3       RATES FOR THIS TIME STEP      L**3/T
     ------------------                 ------------------------

           IN:                                      IN:
           ---                                      ---
             STORAGE     =    60951000.0000               STORAGE     =          36.2033
       CONSTANT HEAD     =           0.0000         CONSTANT HEAD     =           0.0000
     HEAD DEP BOUNDS     =     4946130.5000       HEAD DEP BOUNDS     =           0.2880
      STREAM LEAKAGE     =   203683648.0000        STREAM LEAKAGE     =          11.9373
        UZF RECHARGE     =       73223.9531          UZF RECHARGE     =           0.0000
               GW ET     =           0.0000                 GW ET     =           0.0000
     SURFACE LEAKAGE     =           0.0000       SURFACE LEAKAGE     =           0.0000
           AG WELLS      =           0.0000             AG WELLS      =           0.0000

                TOTAL IN =   269653984.0000                  TOTAL IN =          48.4286

          OUT:                                     OUT:
          ----                                     ----
             STORAGE     =    37119264.0000               STORAGE     =           1.0005
       CONSTANT HEAD     =           0.0000         CONSTANT HEAD     =           0.0000
     HEAD DEP BOUNDS     =     4956340.5000       HEAD DEP BOUNDS     =           0.2873
      STREAM LEAKAGE     =   177365472.0000        STREAM LEAKAGE     =          10.6515
        UZF RECHARGE     =           0.0000          UZF RECHARGE     =           0.0000
               GW ET     =           0.0000                 GW ET     =           0.0000
     SURFACE LEAKAGE     =           0.0000       SURFACE LEAKAGE     =           0.0000
           AG WELLS      =    50216024.0000             AG WELLS      =          36.4892

               TOTAL OUT =   269657088.0000                 TOTAL OUT =          48.4286

                IN - OUT =       -3104.0000                  IN - OUT =       1.5259E-05

     PERCENT DISCREPANCY =          -0.00         PERCENT DISCREPANCY =           0.00






         TIME SUMMARY AT END OF TIME STEP   15 IN STRESS PERIOD    8
                    SECONDS     MINUTES      HOURS       DAYS        YEARS
                    -----------------------------------------------------------
   TIME STEP LENGTH  87667.      1461.1      24.352      1.0147     2.77799E-03
 STRESS PERIOD TIME 1.31500E+06  21917.      365.28      15.220     4.16698E-02
         TOTAL TIME 1.71814E+07 2.86357E+05  4772.6      198.86     0.54445    
1
 
 SOLVING FOR HEAD 
                                                   Max.-Head-Change                         Max.-Flux-Residual
  Residual-Control   Outer-Iter.   Inner-Iter.     Column Row Layer    Maximum-Head-Change  Column Row Layer    Maximum-Flux-Residual          L2-NORM 
          0                 1           2             5    8     1       0.3516233037E-01       5    8    1         0.1927600037E+01      0.4405532178E+01
          0                 2           2             5    7     1      -0.9956694621E-01       5    8    1        -0.5464316025E+01      0.1330408766E+02
          0                 3           2             5    7     1       0.6778691722E-02       5    8    1         0.3824185251E+00      0.9324680829E+00
          0                 4           2             4    7     1      -0.1454935325E-01       5    8    1        -0.8254832582E+00      0.2021668962E+01
          0                 5           2             4    7     1       0.1785477890E-03       4    7    1         0.1040645510E-01      0.2550030529E-01
          0                 6           1             4    7     1       0.2625943962E-05       5    8    1         0.1533941290E-03      0.3760562196E-03

    ------------------------------------------------
       NWT REQUIRED            6 OUTER ITERATIONS 
       AND A TOTAL OF         11 INNER ITERATIONS.
    ------------------------------------------------

 NO OUTPUT CONTROL FOR STRESS PERIOD    8   TIME STEP   16
 
 SOLVING FOR HEAD 
                                                   Max.-Head-Change                         Max.-Flux-Residual
  Residual-Control   Outer-Iter.   Inner-Iter.     Column Row Layer    Maximum-Head-Change  Column Row Layer    Maximum-Flux-Residual          L2-NORM 
          0                 1           2             5    8     1       0.3664813314E-01       5    8    1         0.2008561348E+01      0.4596286695E+01
          0                 2           2             5    7     1      -0.9974881763E-01       5    8    1        -0.5475562026E+01      0.1332878834E+02
          0                 3           2             5    7     1       0.6791076568E-02       5    8    1         0.3832071723E+00      0.9341877182E+00
          0                 4           2             4    7     1      -0.1449428821E-01       5    8    1        -0.8223675733E+00      0.2014028143E+01
          0                 5           2             4    7     1       0.1778688216E-03       4    7    1         0.1036686135E-01      0.2540343517E-01
          0                 6           1             4    7     1       0.2615958074E-05       5    8    1         0.1528120790E-03      0.3746274094E-03

    ------------------------------------------------
       NWT REQUIRED            6 OUTER ITERATIONS 
       AND A TOTAL OF         11 INNER ITERATIONS.
    ------------------------------------------------

 NO OUTPUT CONTROL FOR STRESS PERIOD    8   TIME STEP   17
 
 SOLVING FOR HEAD 
                                                   Max.-Head-Change                         Max.-Flux-Residual
  Residual-Control   Outer-Iter.   Inner-Iter.     Column Row Layer    Maximum-Head-Change  Column Row Layer    Maximum-Flux-Residual          L2-NORM 
          0                 1           2             5    8     1       0.3806643417E-01       5    8    1         0.2085778386E+01      0.4780147128E+01
          0                 2           2             5    7     1      -0.9992787726E-01       5    8    1        -0.5486427402E+01      0.1335297891E+02
          0                 3           2             5    7     1       0.6803261366E-02       5    8    1         0.3839685963E+00      0.9358705432E+00
          0                 4           2             4    7     1      -0.1443932467E-01       5    8    1        -0.8192564869E+00      0.2006399827E+01
          0                 5           2             4    7     1       0.1771992858E-03       4    7    1         0.1032781755E-01      0.2530789462E-01
          0                 6           1             4    7     1       0.2606110974E-05       5    8    1         0.1522379202E-03      0.3732168370E-03

    ------------------------------------------------
       NWT REQUIRED            6 OUTER ITERATIONS 
       AND A TOTAL OF         11 INNER ITERATIONS.
    ------------------------------------------------

 NO OUTPUT CONTROL FOR STRESS PERIOD    8   TIME STEP   18
 
 SOLVING FOR HEAD 
                                                   Max.-Head-Change                         Max.-Flux-Residual
  Residual-Control   Outer-Iter.   Inner-Iter.     Column Row Layer    Maximum-Head-Change  Column Row Layer    Maximum-Flux-Residual          L2-NORM 
          0                 1           2             5    8     1       0.3942130972E-01       5    8    1         0.2159479600E+01      0.4957440828E+01
          0                 2           2             5    7     1      -0.1001041238E+00       5    8    1        -0.5496934997E+01      0.1337667757E+02
          0                 3           2             5    7     1       0.6815280250E-02       5    8    1         0.3847052309E+00      0.9375216531E+00
          0                 4           2             4    7     1      -0.1438448874E-01       5    8    1        -0.8161514246E+00      0.1998787722E+01
          0                 5           2             4    7     1       0.1765395042E-03       4    7    1         0.1028934248E-01      0.2521373317E-01
          0                 6           1             4    7     1       0.2596407590E-05       5    8    1         0.1516721334E-03      0.3718283066E-03

    ------------------------------------------------
       NWT REQUIRED            6 OUTER ITERATIONS 
       AND A TOTAL OF         11 INNER ITERATIONS.
    ------------------------------------------------

 NO OUTPUT CONTROL FOR STRESS PERIOD    8   TIME STEP   19
 
 SOLVING FOR HEAD 
                                                   Max.-Head-Change                         Max.-Flux-Residual
  Residual-Control   Outer-Iter.   Inner-Iter.     Column Row Layer    Maximum-Head-Change  Column Row Layer    Maximum-Flux-Residual          L2-NORM 
          0                 1           2             5    8     1       0.4071667648E-01       5    8    1         0.2229884202E+01      0.5128508277E+01
          0                 2           2             5    7     1      -0.1002776491E+00       5    8    1        -0.5507106733E+01      0.1339990527E+02
          0                 3           2             5    7     1       0.6827088142E-02       5    8    1         0.3854167785E+00      0.9391364777E+00
          0                 4           2             4    7     1      -0.1432972755E-01       5    8    1        -0.8130496142E+00      0.1991184649E+01
          0                 5           2             4    7     1       0.1758479217E-03       4    7    1         0.1024901396E-01      0.2511501571E-01
          0                 6           1             4    7     1       0.2586236092E-05       5    8    1         0.1510788099E-03      0.3703713551E-03

    ------------------------------------------------
       NWT REQUIRED            6 OUTER ITERATIONS 
       AND A TOTAL OF         11 INNER ITERATIONS.
    ------------------------------------------------

 NO OUTPUT CONTROL FOR STRESS PERIOD    8   TIME STEP   20
 
 SOLVING FOR HEAD 
                                                   Max.-Head-Change                         Max.-Flux-Residual
  Residual-Control   Outer-Iter.   Inner-Iter.     Column Row Layer    Maximum-Head-Change  Column Row Layer    Maximum-Flux-Residual          L2-NORM 
          0                 1           2             5    8     1       0.4195615766E-01       5    8    1         0.2297195348E+01      0.5293634287E+01
          0                 2           2             5    7     1      -0.1004484615E+00       5    8    1        -0.5516963879E+01      0.1342268067E+02
          0                 3           2             5    7     1       0.6838736944E-02       5    8    1         0.3861077358E+00      0.9407235908E+00
          0                 4           2             4    7     1      -0.1427510163E-01       5    8    1        -0.8099545909E+00      0.1983599133E+01
          0                 5           2             4    7     1       0.1751825489E-03       4    7    1         0.1021021339E-01      0.2502002679E-01
          0                 6           1             4    7     1       0.2576450264E-05       5    8    1         0.1505078171E-03      0.3689796550E-03

    ------------------------------------------------
       NWT REQUIRED            6 OUTER ITERATIONS 
       AND A TOTAL OF         11 INNER ITERATIONS.
    ------------------------------------------------

 NO OUTPUT CONTROL FOR STRESS PERIOD    8   TIME STEP   21
 
 SOLVING FOR HEAD 
                                                   Max.-Head-Change                         Max.-Flux-Residual
  Residual-Control   Outer-Iter.   Inner-Iter.     Column Row Layer    Maximum-Head-Change  Column Row Layer    Maximum-Flux-Residual          L2-NORM 
          0                 1           2             5    8     1       0.4314325602E-01       5    8    1         0.2361608705E+01      0.5453130641E+01
          0                 2           2             5    7     1      -0.1006166104E+00       5    8    1        -0.5526524096E+01      0.1344501849E+02
          0                 3           2             5    7     1       0.6850170149E-02       5    8    1         0.3867760008E+00      0.9422755928E+00
          0                 4           2             4    7     1      -0.1422056615E-01       5    8    1        -0.8068638848E+00      0.1976025044E+01
          0                 5           2             4    7     1       0.1745428330E-03       4    7    1         0.1017290853E-01      0.2492868465E-01
          0                 6           1             4    7     1       0.2567041819E-05       5    8    1         0.1499586810E-03      0.3676248403E-03

    ------------------------------------------------
       NWT REQUIRED            6 OUTER ITERATIONS 
       AND A TOTAL OF         11 INNER ITERATIONS.
    ------------------------------------------------

 NO OUTPUT CONTROL FOR STRESS PERIOD    8   TIME STEP   22
 
 SOLVING FOR HEAD 
                                                   Max.-Head-Change                         Max.-Flux-Residual
  Residual-Control   Outer-Iter.   Inner-Iter.     Column Row Layer    Maximum-Head-Change  Column Row Layer    Maximum-Flux-Residual          L2-NORM 
          0                 1           2             5    8     1       0.4428107852E-01       5    8    1         0.2423297998E+01      0.5607280774E+01
          0                 2           2             5    7     1      -0.1007821804E+00       5    8    1        -0.5535807140E+01      0.1346694098E+02
          0                 3           2             5    7     1       0.6861444827E-02       5    8    1         0.3874258176E+00      0.9438011510E+00
          0                 4           2             4    7     1      -0.1416612296E-01       5    8    1        -0.8037776694E+00      0.1968462729E+01
          0                 5           2             4    7     1       0.1738797134E-03       4    7    1         0.1013423973E-01      0.2483399344E-01
          0                 6           1             4    7     1       0.2557289148E-05       5    8    1         0.1493893378E-03      0.3663199144E-03

    ------------------------------------------------
       NWT REQUIRED            6 OUTER ITERATIONS 
       AND A TOTAL OF         11 INNER ITERATIONS.
    ------------------------------------------------

 NO OUTPUT CONTROL FOR STRESS PERIOD    8   TIME STEP   23
 
 SOLVING FOR HEAD 
                                                   Max.-Head-Change                         Max.-Flux-Residual
  Residual-Control   Outer-Iter.   Inner-Iter.     Column Row Layer    Maximum-Head-Change  Column Row Layer    Maximum-Flux-Residual          L2-NORM 
          0                 1           2             5    8     1       0.4537236642E-01       5    8    1         0.2482416539E+01      0.5756323713E+01
          0                 2           2             5    7     1      -0.1009452021E+00       5    8    1        -0.5544826911E+01      0.1348845884E+02
          0                 3           2             5    7     1       0.6872554522E-02       5    8    1         0.3880576823E+00      0.9452998069E+00
          0                 4           2             4    7     1      -0.1411181335E-01       5    8    1        -0.8006983491E+00      0.1960918012E+01
          0                 5           2             4    7     1       0.1732264209E-03       4    7    1         0.1009614399E-01      0.2474068875E-01
          0                 6           1             4    7     1       0.2547681314E-05       5    8    1         0.1488283199E-03      0.3648480942E-03

    ------------------------------------------------
       NWT REQUIRED            6 OUTER ITERATIONS 
       AND A TOTAL OF         11 INNER ITERATIONS.
    ------------------------------------------------

 NO OUTPUT CONTROL FOR STRESS PERIOD    8   TIME STEP   24
 
 SOLVING FOR HEAD 
                                                   Max.-Head-Change                         Max.-Flux-Residual
  Residual-Control   Outer-Iter.   Inner-Iter.     Column Row Layer    Maximum-Head-Change  Column Row Layer    Maximum-Flux-Residual          L2-NORM 
          0                 1           2             5    8     1       0.4642008460E-01       5    8    1         0.2539130034E+01      0.5900517284E+01
          0                 2           2             5    7     1      -0.1011057049E+00       5    8    1        -0.5553599981E+01      0.1350958837E+02
          0                 3           2             5    7     1       0.6883484117E-02       5    8    1         0.3886718012E+00      0.9467703437E+00
          0                 4           2             4    7     1      -0.1405758597E-01       5    8    1        -0.7976230714E+00      0.1953383839E+01
          0                 5           2             4    7     1       0.1725577818E-03       4    7    1         0.1005715393E-01      0.2464519071E-01
          0                 6           1             4    7     1       0.2537847208E-05       5    8    1         0.1482540158E-03      0.3635371830E-03

    ------------------------------------------------
       NWT REQUIRED            6 OUTER ITERATIONS 
       AND A TOTAL OF         11 INNER ITERATIONS.
    ------------------------------------------------

 NO OUTPUT CONTROL FOR STRESS PERIOD    8   TIME STEP   25
 
 SOLVING FOR HEAD 
                                                   Max.-Head-Change                         Max.-Flux-Residual
  Residual-Control   Outer-Iter.   Inner-Iter.     Column Row Layer    Maximum-Head-Change  Column Row Layer    Maximum-Flux-Residual          L2-NORM 
          0                 1           2             5    8     1       0.4742656931E-01       5    8    1         0.2593568614E+01      0.6040097736E+01
          0                 2           2             5    7     1      -0.1012637870E+00       5    8    1        -0.5562139839E+01      0.1353034554E+02
          0                 3           2             5    7     1       0.6894231761E-02       5    8    1         0.3892686418E+00      0.9482129133E+00
          0                 4           2             4    7     1      -0.1400345703E-01       5    8    1        -0.7945528090E+00      0.1945862533E+01
          0                 5           2             4    7     1       0.1718985369E-03       4    7    1         0.1001871170E-01      0.2455101699E-01
          0                 6           1             4    7     1       0.2528151553E-05       5    8    1         0.1476876710E-03      0.3620549896E-03

    ------------------------------------------------
       NWT REQUIRED            6 OUTER ITERATIONS 
       AND A TOTAL OF         11 INNER ITERATIONS.
    ------------------------------------------------

 NO OUTPUT CONTROL FOR STRESS PERIOD    8   TIME STEP   26
 
 SOLVING FOR HEAD 
                                                   Max.-Head-Change                         Max.-Flux-Residual
  Residual-Control   Outer-Iter.   Inner-Iter.     Column Row Layer    Maximum-Head-Change  Column Row Layer    Maximum-Flux-Residual          L2-NORM 
          0                 1           2             5    8     1       0.4839427087E-01       5    8    1         0.2645869154E+01      0.6175277117E+01
          0                 2           2             5    7     1      -0.1014194870E+00       5    8    1        -0.5570460649E+01      0.1355074394E+02
          0                 3           2             5    7     1       0.6904842841E-02       5    8    1         0.3898515796E+00      0.9496339502E+00
          0                 4           2             4    7     1      -0.1394942809E-01       5    8    1        -0.7914877001E+00      0.1938354379E+01
          0                 5           2             4    7     1       0.1712487057E-03       4    7    1         0.9980818415E-02      0.2445817975E-01
          0                 6           1             4    7     1       0.2518594014E-05       5    8    1         0.1471293062E-03      0.3606843984E-03

    ------------------------------------------------
       NWT REQUIRED            6 OUTER ITERATIONS 
       AND A TOTAL OF         11 INNER ITERATIONS.
    ------------------------------------------------

 NO OUTPUT CONTROL FOR STRESS PERIOD    8   TIME STEP   27
 
 SOLVING FOR HEAD 
                                                   Max.-Head-Change                         Max.-Flux-Residual
  Residual-Control   Outer-Iter.   Inner-Iter.     Column Row Layer    Maximum-Head-Change  Column Row Layer    Maximum-Flux-Residual          L2-NORM 
          0                 1           2             5    8     1       0.4932546599E-01       5    8    1         0.2696158639E+01      0.6306265082E+01
          0                 2           2             5    7     1      -0.1015728470E+00       5    8    1        -0.5578574157E+01      0.1357079437E+02
          0                 3           2             5    7     1       0.6915268906E-02       5    8    1         0.3904185758E+00      0.9510272647E+00
          0                 4           2             4    7     1      -0.1389548839E-01       5    8    1        -0.7884271843E+00      0.1930857952E+01
          0                 5           2             4    7     1       0.1705917934E-03       4    7    1         0.9942512698E-02      0.2436432920E-01
          0                 6           1             4    7     1       0.2508933421E-05       5    8    1         0.1465648147E-03      0.3593999723E-03

    ------------------------------------------------
       NWT REQUIRED            6 OUTER ITERATIONS 
       AND A TOTAL OF         11 INNER ITERATIONS.
    ------------------------------------------------

 NO OUTPUT CONTROL FOR STRESS PERIOD    8   TIME STEP   28
 
 SOLVING FOR HEAD 
                                                   Max.-Head-Change                         Max.-Flux-Residual
  Residual-Control   Outer-Iter.   Inner-Iter.     Column Row Layer    Maximum-Head-Change  Column Row Layer    Maximum-Flux-Residual          L2-NORM 
          0                 1           2             5    8     1       0.5022213303E-01       5    8    1         0.2744547337E+01      0.6433255092E+01
          0                 2           2             5    7     1      -0.1017239214E+00       5    8    1        -0.5586491867E+01      0.1359051079E+02
          0                 3           2             5    7     1       0.6925564990E-02       5    8    1         0.3909732965E+00      0.9524010627E+00
          0                 4           2             4    7     1      -0.1384166507E-01       5    8    1        -0.7853728422E+00      0.1923377081E+01
          0                 5           2             4    7     1       0.1699444978E-03       4    7    1         0.9904767726E-02      0.2427184097E-01
          0                 6           1             4    7     1       0.2499413183E-05       5    8    1         0.1460084904E-03      0.3579314391E-03

    ------------------------------------------------
       NWT REQUIRED            6 OUTER ITERATIONS 
       AND A TOTAL OF         11 INNER ITERATIONS.
    ------------------------------------------------

 NO OUTPUT CONTROL FOR STRESS PERIOD    8   TIME STEP   29
 
 SOLVING FOR HEAD 
                                                   Max.-Head-Change                         Max.-Flux-Residual
  Residual-Control   Outer-Iter.   Inner-Iter.     Column Row Layer    Maximum-Head-Change  Column Row Layer    Maximum-Flux-Residual          L2-NORM 
          0                 1           2             5    8     1       0.5108611766E-01       5    8    1         0.2791137769E+01      0.6556422512E+01
          0                 2           2             5    7     1      -0.1018727850E+00       5    8    1        -0.5594224030E+01      0.1360990505E+02
          0                 3           2             5    7     1       0.6935701960E-02       5    8    1         0.3915145522E+00      0.9537515424E+00
          0                 4           2             4    7     1      -0.1378792294E-01       5    8    1        -0.7823227178E+00      0.1915906938E+01
          0                 5           2             4    7     1       0.1692654801E-03       4    7    1         0.9865174017E-02      0.2417481937E-01
          0                 6           1             4    7     1       0.2489426623E-05       5    8    1         0.1454248497E-03      0.3564997436E-03

    ------------------------------------------------
       NWT REQUIRED            6 OUTER ITERATIONS 
       AND A TOTAL OF         11 INNER ITERATIONS.
    ------------------------------------------------

 NO OUTPUT CONTROL FOR STRESS PERIOD    8   TIME STEP   30



 STREAM LISTING     PERIOD      8   STEP       30

 LAYER ROW COL. STREAM  RCH.  FLOW INTO     FLOW TO   FLOW OUT OF   OVRLND.     DIRECT     STREAM       STREAM     STREAM     STREAM   STREAMBED  STREAMBED
                SEG.NO.  NO.  STRM. RCH.    AQUIFER    STRM. RCH.    RUNOFF     PRECIP       ET          HEAD       DEPTH      WIDTH   CONDCTNC.   GRADIENT

   1    1    1     1     1    2.8125E+01  2.5915E-01   2.7866E+01  0.000E+00  0.000E+00  0.000E+00  1.09427E+03  1.223E+00  1.364E+01  6.137E-02  1.408E+00
   1    2    2     1     2    2.7866E+01  4.0087E-01   2.7465E+01  0.000E+00  0.000E+00  0.000E+00  1.08928E+03  1.218E+00  1.358E+01  9.503E-02  1.406E+00
   1    3    3     1     3    2.7465E+01  3.4142E-01   2.7123E+01  0.000E+00  0.000E+00  0.000E+00  1.08363E+03  1.213E+00  1.351E+01  8.103E-02  1.404E+00
   1    3    4     1     4    2.7123E+01  3.1403E-01   2.6809E+01  0.000E+00  0.000E+00  0.000E+00  1.07862E+03  1.209E+00  1.344E+01  7.461E-02  1.403E+00
   1    4    5     2     1    2.4809E+01  3.2739E-01   2.4482E+01  0.000E+00  0.000E+00  0.000E+00  1.07313E+03  1.197E+00  1.200E+01  7.800E-02  1.399E+00
   1    5    6     2     2    2.4482E+01  2.5133E-01   2.4231E+01  0.000E+00  0.000E+00  0.000E+00  1.06770E+03  1.189E+00  1.200E+01  6.000E-02  1.396E+00
   1    6    6     2     3    2.4231E+01  2.5089E-01   2.3980E+01  0.000E+00  0.000E+00  0.000E+00  1.06297E+03  1.181E+00  1.200E+01  6.000E-02  1.394E+00
   1    7    6     2     4    2.3980E+01  2.5044E-01   2.3729E+01  0.000E+00  0.000E+00  0.000E+00  1.05825E+03  1.174E+00  1.200E+01  6.000E-02  1.391E+00
   1    8    6     2     5    2.3729E+01  2.5000E-01   2.3479E+01  0.000E+00  0.000E+00  0.000E+00  1.05353E+03  1.167E+00  1.200E+01  6.000E-02  1.389E+00
   1    3    5     3     1    2.0000E+00  2.8252E-01   1.7175E+00  0.000E+00  0.000E+00  0.000E+00  1.07555E+03  1.909E+00  9.636E+00  7.227E-02  1.955E+00
   1    3    6     3     2    1.7175E+00  2.4905E-01   1.4684E+00  0.000E+00  0.000E+00  0.000E+00  1.07264E+03  1.727E+00  8.909E+00  6.682E-02  1.864E+00
   1    3    7     3     3    1.4684E+00  1.9718E-01   1.2712E+00  0.000E+00  0.000E+00  0.000E+00  1.06987E+03  1.555E+00  8.218E+00  5.547E-02  1.777E+00
   1    4    8     3     4    1.2712E+00  2.2567E-01   1.0456E+00  0.000E+00  0.000E+00  0.000E+00  1.06682E+03  1.364E+00  7.455E+00  6.709E-02  1.682E+00
   1    5    8     3     5    1.0456E+00  1.5790E-01   8.8768E-01  0.000E+00  0.000E+00  0.000E+00  1.06362E+03  1.164E+00  6.655E+00  4.991E-02  1.582E+00
   1    6    8     3     6    8.8768E-01  5.5980E-02   8.3170E-01  0.000E+00  0.000E+00  0.000E+00  1.06158E+03  1.036E+00  6.145E+00  1.844E-02  1.518E+00
   1    5   10     4     1    1.0000E+01  9.0919E-02   9.9091E+00  0.000E+00  0.000E+00  0.000E+00  1.07836E+03  6.368E-01  1.000E+01  2.500E-02  1.212E+00
   1    5    9     4     2    9.9091E+00  1.8158E-01   9.7275E+00  0.000E+00  0.000E+00  0.000E+00  1.07154E+03  6.315E-01  1.000E+01  5.000E-02  1.211E+00
   1    6    8     4     3    9.7275E+00  1.2689E-01   9.6006E+00  0.000E+00  0.000E+00  0.000E+00  1.06381E+03  6.256E-01  1.000E+01  3.500E-02  1.209E+00
   1    6    8     5     1    1.0432E+01  2.2686E-01   1.0205E+01  0.000E+00  0.000E+00  0.000E+00  1.05868E+03  6.790E-01  1.542E+01  6.166E-02  1.226E+00
   1    7    7     5     2    1.0205E+01  2.7894E-01   9.9265E+00  0.000E+00  0.000E+00  0.000E+00  1.05417E+03  6.732E-01  1.519E+01  7.594E-02  1.224E+00
   1    8    7     5     3    9.9265E+00  1.9221E-01   9.7343E+00  0.000E+00  0.000E+00  0.000E+00  1.04992E+03  6.676E-01  1.497E+01  5.241E-02  1.223E+00
   1    8    6     5     4    9.7343E+00  1.3577E-01   9.5985E+00  0.000E+00  0.000E+00  0.000E+00  1.04691E+03  6.637E-01  1.482E+01  3.706E-02  1.221E+00
   1    9    6     6     1    9.5985E+00  2.2097E-01   9.3776E+00  0.000E+00  0.000E+00  0.000E+00  1.04341E+03  6.828E-01  1.200E+01  6.000E-02  1.228E+00
   1   10    7     6     2    9.3776E+00  2.2039E-01   9.1572E+00  0.000E+00  0.000E+00  0.000E+00  1.03885E+03  6.732E-01  1.200E+01  6.000E-02  1.224E+00
   1   11    7     6     3    9.1572E+00  2.1981E-01   8.9374E+00  0.000E+00  0.000E+00  0.000E+00  1.03430E+03  6.636E-01  1.200E+01  6.000E-02  1.221E+00
   1   12    7     6     4    8.9374E+00  2.1923E-01   8.7181E+00  0.000E+00  0.000E+00  0.000E+00  1.02974E+03  6.539E-01  1.200E+01  6.000E-02  1.218E+00
   1   13    7     6     5    8.7181E+00 -6.6546E-02   8.7847E+00  0.000E+00  0.000E+00  0.000E+00  1.02656E+03  6.505E-01  1.200E+01  2.400E-01 -9.243E-02
   1   14    9     7     1    1.5000E+02  1.3683E+00   1.4863E+02  0.000E+00  0.000E+00  0.000E+00  1.03987E+03  2.288E+00  5.529E+01  5.593E-01  8.155E-01
   1   13    8     7     2    1.4863E+02  1.9165E+00   1.4672E+02  0.000E+00  0.000E+00  0.000E+00  1.03478E+03  2.279E+00  5.526E+01  6.148E-01  1.039E+00
   1   13    7     7     3    1.4672E+02  1.5926E+00   1.4512E+02  0.000E+00  0.000E+00  0.000E+00  1.02969E+03  2.270E+00  5.521E+01  5.584E-01  9.507E-01
   1   13    6     8     1    1.5391E+02  9.4120E-01   1.5297E+02  0.000E+00  0.000E+00  0.000E+00  1.02472E+03  2.841E+00  4.119E+01  4.198E-01  7.474E-01
   1   13    5     8     2    1.5297E+02  2.0297E-01   1.5276E+02  0.000E+00  0.000E+00  0.000E+00  1.01846E+03  2.837E+00  4.113E+01  4.192E-01  1.614E-01
   1   13    4     8     3    1.5276E+02 -2.3308E+00   1.5509E+02  0.000E+00  0.000E+00  0.000E+00  1.01222E+03  2.844E+00  4.124E+01  4.203E+00 -1.849E-01
   1   13    3     8     4    1.5509E+02 -3.5894E+00   1.5868E+02  0.000E+00  0.000E+00  0.000E+00  1.00599E+03  2.865E+00  4.154E+01  4.233E+00 -2.827E-01
   1   13    2     8     5    1.5868E+02 -2.5742E+00   1.6126E+02  0.000E+00  0.000E+00  0.000E+00  9.99761E+02  2.886E+00  4.184E+01  4.264E+00 -2.012E-01
   1   13    1     8     6    1.6126E+02 -1.9941E+00   1.6325E+02  0.000E+00  0.000E+00  0.000E+00  9.94776E+02  2.901E+00  4.206E+01  2.572E+00 -2.584E-01
   1    8    6     9     1    2.3479E+01  0.0000E+00   2.3479E+01  0.000E+00  0.000E+00  0.000E+00  1.08253E+03  3.782E+00  4.000E+00  0.000E+00  2.261E+00
   1    8    5     9     2    2.3479E+01  0.0000E+00   2.3479E+01  0.000E+00  0.000E+00  0.000E+00  1.08203E+03  3.782E+00  4.000E+00  0.000E+00  2.261E+00





UNSATURATED ZONE PACKAGE VOLUMETRIC BUDGET FOR  TIME STEP    30 STRESS PERIOD    8
  ------------------------------------------------------------------------------



     CUMULATIVE VOLUMES      L**3       RATES FOR THIS TIME STEP      L**3/T
     ------------------                 ------------------------

           IN:                                      IN:
           ---                                      ---
        INFILTRATION =   263352033.3463          INFILTRATION =          60.8165

          OUT:                                     OUT:
          ----                                     ----
              UZF ET =   261748818.6819                UZF ET =          60.8175
        UZF RECHARGE =       73224.0000          UZF RECHARGE =       0.0000E+00

            IN - OUT =     1529990.6644              IN - OUT =      -9.8419E-04

          STORAGE:                                 STORAGE:
          --------                                 --------
      STORAGE CHANGE =     1529989.8654        STORAGE CHANGE =      -9.8634E-04

 PERCENT DISCREPANCY IS DIFFERENCE BETWEEN IN-OUT MINUS CHANGE IN STORAGE
 DIVIDED BY THE AVERAGE OF IN AND OUT TIMES 100

 PERCENT DISCREPANCY =           0.00     PERCENT DISCREPANCY =           0.00






1
  VOLUMETRIC BUDGET FOR AGRICULTURAL FIELDS AT  END OF TIME STEP   30, STRESS PERIOD   8
  ------------------------------------------------------------------------------

     CUMULATIVE VOLUMES      L**3       RATES FOR THIS TIME STEP      L**3/T
     ------------------                 ------------------------

           IN:                                      IN:
           ---                                      ---
           AG WELLS      =    98199336.0000             AG WELLS      =          36.4893
      DIVERSION SEGMENTS =   149487840.0000        DIVERSION SEGMENTS =          23.4793
           GW IRRIGATION =           0.0000             GW IRRIGATION =           0.0000
           SW IRRIGATION =           0.0000             SW IRRIGATION =           0.0000
        SYSTEM LOSSES GW =           0.0000          SYSTEM LOSSES GW =           0.0000
        SYSTEM LOSSES SW =           0.0000          SYSTEM LOSSES SW =           0.0000

                TOTAL IN =   247687168.0000                  TOTAL IN =          59.9685

          OUT:                                     OUT:
          ----                                     ----
           AG WELLS      =           0.0000             AG WELLS      =           0.0000
      DIVERSION SEGMENTS =           0.0000        DIVERSION SEGMENTS =           0.0000
           GW IRRIGATION =    98199336.0000             GW IRRIGATION =          36.4893
           SW IRRIGATION =   149490736.0000             SW IRRIGATION =          23.4797
        SYSTEM LOSSES GW =           0.0000          SYSTEM LOSSES GW =           0.0000
        SYSTEM LOSSES SW =           0.0000          SYSTEM LOSSES SW =           0.0000

               TOTAL OUT =   247690080.0000                 TOTAL OUT =          59.9690

                IN - OUT =       -2912.0000                  IN - OUT =      -4.6921E-04

     PERCENT DISCREPANCY =          -0.00         PERCENT DISCREPANCY =          -0.00



1
  VOLUMETRIC BUDGET FOR ENTIRE MODEL AT END OF TIME STEP   30, STRESS PERIOD   8
  ------------------------------------------------------------------------------

     CUMULATIVE VOLUMES      L**3       RATES FOR THIS TIME STEP      L**3/T
     ------------------                 ------------------------

           IN:                                      IN:
           ---                                      ---
             STORAGE     =   108334208.0000               STORAGE     =          35.9078
       CONSTANT HEAD     =           0.0000         CONSTANT HEAD     =           0.0000
     HEAD DEP BOUNDS     =     5324802.5000       HEAD DEP BOUNDS     =           0.2880
      STREAM LEAKAGE     =   219389728.0000        STREAM LEAKAGE     =          11.9489
        UZF RECHARGE     =       73223.9531          UZF RECHARGE     =           0.0000
               GW ET     =           0.0000                 GW ET     =           0.0000
     SURFACE LEAKAGE     =           0.0000       SURFACE LEAKAGE     =           0.0000
           AG WELLS      =           0.0000             AG WELLS      =           0.0000

                TOTAL IN =   333121952.0000                  TOTAL IN =          48.1447

          OUT:                                     OUT:
          ----                                     ----
             STORAGE     =    38296728.0000               STORAGE     =           0.8134
       CONSTANT HEAD     =           0.0000         CONSTANT HEAD     =           0.0000
     HEAD DEP BOUNDS     =     5333880.5000       HEAD DEP BOUNDS     =           0.2870
      STREAM LEAKAGE     =   191295056.0000        STREAM LEAKAGE     =          10.5550
        UZF RECHARGE     =           0.0000          UZF RECHARGE     =           0.0000
               GW ET     =           0.0000                 GW ET     =           0.0000
     SURFACE LEAKAGE     =           0.0000       SURFACE LEAKAGE     =           0.0000
           AG WELLS      =    98199336.0000             AG WELLS      =          36.4893

               TOTAL OUT =   333124992.0000                 TOTAL OUT =          48.1447

                IN - OUT =       -3040.0000                  IN - OUT =       1.9073E-05

     PERCENT DISCREPANCY =          -0.00         PERCENT DISCREPANCY =           0.00






         TIME SUMMARY AT END OF TIME STEP   30 IN STRESS PERIOD    8
                    SECONDS     MINUTES      HOURS       DAYS        YEARS
                    -----------------------------------------------------------
   TIME STEP LENGTH  87667.      1461.1      24.352      1.0147     2.77799E-03
 STRESS PERIOD TIME 2.63000E+06  43833.      730.56      30.440     8.33397E-02
         TOTAL TIME 1.84964E+07 3.08274E+05  5137.9      214.08     0.58612    
1
1
                            STRESS PERIOD NO.    9, LENGTH =   2630000.    
                            -----------------------------------------------

                              NUMBER OF TIME STEPS =    30

                               MULTIPLIER FOR DELT =     1.000

                            INITIAL TIME STEP SIZE =   87666.66    

 REUSING NON-PARAMETER GHB CELLS FROM LAST STRESS PERIOD

      2 GHB CELLS

 REUSING STREAM SEGMENT DATA FROM LAST STRESS PERIOD



            AREAL INFILTRATION RATE
 READING ON UNIT   19 WITH FORMAT: (FREE)              

            1           2           3           4           5           6           7           8           9          10
 ........................................................................................................................
   1   1.0000E-10  2.0000E-10   0.000       0.000       0.000       0.000       0.000       0.000       0.000       0.000    
   2   2.0000E-10  1.0000E-10  2.0000E-10   0.000       0.000      8.0000E-10  8.0000E-10  5.0000E-10   0.000       0.000    
   3    0.000      5.0000E-10  1.0000E-10  1.0000E-10  8.0000E-10  8.0000E-10  5.0000E-10  5.0000E-10   0.000       0.000    
   4   8.0000E-10  5.0000E-10  1.0000E-10  1.0000E-10  1.0000E-10  1.0000E-10  1.0000E-10  1.0000E-10  2.0000E-10   0.000    
   5   8.0000E-10  5.0000E-10  1.0000E-10  1.0000E-10  1.0000E-10  1.0000E-10  1.0000E-10  1.0000E-10  1.0000E-10  1.0000E-10
   6   8.0000E-10  5.0000E-10  5.0000E-10  2.0000E-10  2.0000E-10  1.0000E-10  1.0000E-10  1.0000E-10  1.0000E-10  5.0000E-10
   7   8.0000E-10  5.0000E-10  5.0000E-10  2.0000E-10  2.0000E-10  1.0000E-10  1.0000E-10  2.0000E-10  2.0000E-10   0.000    
   8    0.000      5.0000E-10  5.0000E-10  2.0000E-10  2.0000E-10  1.0000E-10  1.0000E-10  2.0000E-10  5.0000E-10   0.000    
   9    0.000      5.0000E-10  5.0000E-10  2.0000E-10  2.0000E-10  1.0000E-10  1.0000E-10  2.0000E-10  5.0000E-10   0.000    
  10    0.000      5.0000E-10  5.0000E-10  2.0000E-10  2.0000E-10  1.0000E-10  1.0000E-10  2.0000E-10  5.0000E-10  8.0000E-10
  11    0.000      1.0000E-10  1.0000E-10  1.0000E-10  1.0000E-10  1.0000E-10  1.0000E-10  2.0000E-10  5.0000E-10   0.000    
  12   1.0000E-10  1.0000E-10  1.0000E-10  1.0000E-10  1.0000E-10  1.0000E-10  1.0000E-10  1.0000E-10  2.0000E-10   0.000    
  13   1.0000E-10  1.0000E-10  2.0000E-10  2.0000E-10  2.0000E-10  2.0000E-10  2.0000E-10  1.0000E-10  1.0000E-10   0.000    
  14    0.000      2.0000E-10  5.0000E-10  5.0000E-10  5.0000E-10  5.0000E-10  5.0000E-10  2.0000E-10  1.0000E-10   0.000    
  15    0.000       0.000      8.0000E-10  8.0000E-10  8.0000E-10  8.0000E-10   0.000       0.000       0.000       0.000    

                  ET RATE =  3.250000E-07

 USING ET EXTINCTION DEPTH FROM PREVIOUS STRESS PERIOD. CURRENT PERIOD IS:       9

 USING EXTINCTION WATER CONTENT FROM PREVIOUS STRESS PERIOD. CURRENT PERIOD IS:       9

 USING AIR ENTRY PRESSURE FROM PREVIOUS STRESS PERIOD. CURRENT PERIOD IS:       9

 USING ROOT PRESSURE HEAD FROM PREVIOUS STRESS PERIOD. CURRENT PERIOD IS:       9

 USING ROOT ACTIVITY FROM PREVIOUS STRESS PERIOD. CURRENT PERIOD IS:       9

 PROCESSING AG STRESS PERIOD DATA

 READING AG STRESS PERIOD DATA

 READING IRRIGATION SEGMENT

 READING IRRIGATION WELL

 READING SUPPLEMENTAL WELL

 END PROCESSING AG STRESS PERIOD DATA OPTIONS
 
 SOLVING FOR HEAD 
                                                   Max.-Head-Change                         Max.-Flux-Residual
  Residual-Control   Outer-Iter.   Inner-Iter.     Column Row Layer    Maximum-Head-Change  Column Row Layer    Maximum-Flux-Residual          L2-NORM 
          0                 1           2             5    8     1       0.5191639438E-01       5    8    1         0.2836025714E+01      0.6620667598E+01
          0                 2           2             4    7     1      -0.1605076041E+00       5    8    1        -0.8750159991E+01      0.2130067133E+02
          0                 3           2             4    7     1       0.1092984924E-01       5    8    1         0.6124859075E+00      0.1491005375E+01
          0                 4           2             4    7     1      -0.4349095143E-03       5    8    1        -0.2504890816E-01      0.6098007213E-01
          0                 5           1             4    7     1       0.5362622110E-05       5    8    1         0.3173224563E-03      0.7727009813E-03

    ------------------------------------------------
       NWT REQUIRED            5 OUTER ITERATIONS 
       AND A TOTAL OF          9 INNER ITERATIONS.
    ------------------------------------------------

 NO OUTPUT CONTROL FOR STRESS PERIOD    9   TIME STEP    1
 
 SOLVING FOR HEAD 
                                                   Max.-Head-Change                         Max.-Flux-Residual
  Residual-Control   Outer-Iter.   Inner-Iter.     Column Row Layer    Maximum-Head-Change  Column Row Layer    Maximum-Flux-Residual          L2-NORM 
          0                 1           2             5    8     1       0.5400664500E-01       5    8    1         0.2950290339E+01      0.6915849851E+01
          0                 2           2             5    8     1      -0.1889817909E-01       5    8    1        -0.1046372203E+01      0.2463146930E+01
          0                 3           2             4    7     1      -0.4260900527E-01       4    7    1        -0.2287121028E+01      0.5613095110E+01
          0                 4           2             4    7     1       0.4364462096E-01       4    7    1         0.2408018147E+01      0.5897859965E+01
          0                 5           2             4    7     1      -0.2998842913E-02       5    8    1        -0.1700714059E+00      0.4166134496E+00
          0                 6           2             4    7     1      -0.1350783266E-02       4    7    1        -0.7660313350E-01      0.1876372385E+00
          0                 7           2             4    7     1      -0.1377268329E-02       4    7    1        -0.7810440059E-01      0.1913147566E+00
          0                 8           2             4    7     1      -0.1255806068E-02       4    7    1        -0.7121560628E-01      0.1744407240E+00
          0                 9           2             4    7     1      -0.1296598015E-02       4    7    1        -0.7352816255E-01      0.1801054064E+00
          0                10           2             4    7     1      -0.1350966836E-02       4    7    1        -0.7661058134E-01      0.1876557266E+00
                                                   Max.-Head-Change                         Max.-Flux-Residual
  Residual-Control   Outer-Iter.   Inner-Iter.     Column Row Layer    Maximum-Head-Change  Column Row Layer    Maximum-Flux-Residual          L2-NORM 
          0                11           2             4    7     1      -0.1377216677E-02       4    7    1        -0.7809838225E-01      0.1913000339E+00
          0                12           2             4    7     1      -0.1362213312E-02       4    7    1        -0.7724681385E-01      0.1892141036E+00
          0                13           2             4    7     1      -0.1373563111E-02       4    7    1        -0.7788965620E-01      0.1907887514E+00
          0                14           2             4    7     1      -0.1370000147E-02       4    7    1        -0.7768684454E-01      0.1902919571E+00
          0                15           2             4    7     1      -0.1389247715E-02       4    7    1        -0.7877751389E-01      0.1929635431E+00
          0                16           2             4    7     1      -0.1535171791E-01       4    7    1        -0.8705138216E+00      0.2132313475E+01
          0                17           2             4    7     1       0.1910754228E-03       5    8    1         0.1114717230E-01      0.2730876800E-01
          0                18           1             4    7     1       0.2788058694E-05       5    8    1         0.1626512244E-03      0.3984691604E-03

    ------------------------------------------------
       NWT REQUIRED           18 OUTER ITERATIONS 
       AND A TOTAL OF         35 INNER ITERATIONS.
    ------------------------------------------------

 NO OUTPUT CONTROL FOR STRESS PERIOD    9   TIME STEP    2
 
 SOLVING FOR HEAD 
                                                   Max.-Head-Change                         Max.-Flux-Residual
  Residual-Control   Outer-Iter.   Inner-Iter.     Column Row Layer    Maximum-Head-Change  Column Row Layer    Maximum-Flux-Residual          L2-NORM 
          0                 1           2             5    8     1       0.5281196482E-01       5    8    1         0.2883227364E+01      0.6810668124E+01
          0                 2           2             5    6     1      -0.6836305993E-01       5    8    1        -0.3765433176E+01      0.9134756889E+01
          0                 3           2             5    6     1       0.4948420723E-02       5    8    1         0.2801470578E+00      0.6818528179E+00
          0                 4           2             4    7     1      -0.1548289117E-02       5    8    1        -0.8817994306E-01      0.2156664861E+00
          0                 5           2             4    7     1      -0.2171682271E-01       4    7    1        -0.1231575807E+01      0.3016726229E+01
          0                 6           2             4    7     1       0.2679862944E-03       4    7    1         0.1561870357E-01      0.3826294298E-01
          0                 7           1             4    7     1       0.3938736791E-05       5    8    1         0.2299801151E-03      0.5639211792E-03

    ------------------------------------------------
       NWT REQUIRED            7 OUTER ITERATIONS 
       AND A TOTAL OF         13 INNER ITERATIONS.
    ------------------------------------------------

 NO OUTPUT CONTROL FOR STRESS PERIOD    9   TIME STEP    3
 
 SOLVING FOR HEAD 
                                                   Max.-Head-Change                         Max.-Flux-Residual
  Residual-Control   Outer-Iter.   Inner-Iter.     Column Row Layer    Maximum-Head-Change  Column Row Layer    Maximum-Flux-Residual          L2-NORM 
          0                 1           2             5    8     1       0.5289192313E-01       5    8    1         0.2886612093E+01      0.6844908194E+01
          0                 2           2             5    6     1      -0.7073943469E-01       5    8    1        -0.3895769846E+01      0.9456569496E+01
          0                 3           2             5    6     1       0.4866781338E-02       5    8    1         0.2755118898E+00      0.6708500842E+00
          0                 4           2             4    7     1      -0.1570984293E-02       5    8    1        -0.8945640001E-01      0.2188039190E+00
          0                 5           2             4    7     1      -0.2347244175E-01       4    7    1        -0.1331135730E+01      0.3260597448E+01
          0                 6           2             4    7     1       0.2896504423E-03       4    7    1         0.1688129621E-01      0.4135607791E-01
          0                 7           1             4    7     1       0.4257146336E-05       5    8    1         0.2485715172E-03      0.6095085842E-03

    ------------------------------------------------
       NWT REQUIRED            7 OUTER ITERATIONS 
       AND A TOTAL OF         13 INNER ITERATIONS.
    ------------------------------------------------

 NO OUTPUT CONTROL FOR STRESS PERIOD    9   TIME STEP    4
 
 SOLVING FOR HEAD 
                                                   Max.-Head-Change                         Max.-Flux-Residual
  Residual-Control   Outer-Iter.   Inner-Iter.     Column Row Layer    Maximum-Head-Change  Column Row Layer    Maximum-Flux-Residual          L2-NORM 
          0                 1           2             5    8     1       0.5311744636E-01       5    8    1         0.2898068263E+01      0.6894259325E+01
          0                 2           2             5    6     1      -0.7111744866E-01       5    8    1        -0.3916332245E+01      0.9509840902E+01
          0                 3           2             5    6     1       0.4848891339E-02       5    8    1         0.2744855260E+00      0.6685648758E+00
          0                 4           2             4    7     1      -0.1586981354E-02       5    8    1        -0.9035522132E-01      0.2210139921E+00
          0                 5           2             4    7     1      -0.2364444894E-01       4    7    1        -0.1340887951E+01      0.3284485576E+01
          0                 6           2             4    7     1       0.2917729902E-03       4    7    1         0.1700497120E-01      0.4165906002E-01
          0                 7           1             4    7     1       0.4288342867E-05       5    8    1         0.2503925848E-03      0.6139725653E-03

    ------------------------------------------------
       NWT REQUIRED            7 OUTER ITERATIONS 
       AND A TOTAL OF         13 INNER ITERATIONS.
    ------------------------------------------------

 NO OUTPUT CONTROL FOR STRESS PERIOD    9   TIME STEP    5
 
 SOLVING FOR HEAD 
                                                   Max.-Head-Change                         Max.-Flux-Residual
  Residual-Control   Outer-Iter.   Inner-Iter.     Column Row Layer    Maximum-Head-Change  Column Row Layer    Maximum-Flux-Residual          L2-NORM 
          0                 1           2             5    8     1       0.5336457668E-01       5    8    1         0.2910745872E+01      0.6945199635E+01
          0                 2           2             5    6     1      -0.7124025681E-01       5    8    1        -0.3922888102E+01      0.9528719774E+01
          0                 3           2             5    6     1       0.4850748672E-02       5    8    1         0.2745767964E+00      0.6689814918E+00
          0                 4           2             4    7     1      -0.1543916837E-02       5    8    1        -0.8790515025E-01      0.2150219584E+00
          0                 5           2             4    7     1      -0.2367125359E-01       4    7    1        -0.1342405676E+01      0.3288203331E+01
          0                 6           2             4    7     1       0.2906639088E-03       4    7    1         0.1694029516E-01      0.4150077664E-01
          0                 7           1             4    7     1       0.4272041806E-05       5    8    1         0.2494414944E-03      0.6116448615E-03

    ------------------------------------------------
       NWT REQUIRED            7 OUTER ITERATIONS 
       AND A TOTAL OF         13 INNER ITERATIONS.
    ------------------------------------------------

 NO OUTPUT CONTROL FOR STRESS PERIOD    9   TIME STEP    6
 
 SOLVING FOR HEAD 
                                                   Max.-Head-Change                         Max.-Flux-Residual
  Residual-Control   Outer-Iter.   Inner-Iter.     Column Row Layer    Maximum-Head-Change  Column Row Layer    Maximum-Flux-Residual          L2-NORM 
          0                 1           2             5    8     1       0.5361682639E-01       5    8    1         0.2923732405E+01      0.6995933640E+01
          0                 2           2             5    7     1      -0.7132931623E-01       5    8    1        -0.3927339812E+01      0.9542321250E+01
          0                 3           2             5    7     1       0.4856133807E-02       5    8    1         0.2748509874E+00      0.6698328910E+00
          0                 4           2             4    7     1      -0.1511101977E-02       5    8    1        -0.8603667258E-01      0.2104538601E+00
          0                 5           2             4    7     1      -0.2365682808E-01       4    7    1        -0.1341585256E+01      0.3286193826E+01
          0                 6           2             4    7     1       0.2891687615E-03       4    7    1         0.1685311998E-01      0.4128736120E-01
          0                 7           1             4    7     1       0.4250067081E-05       5    8    1         0.2481589790E-03      0.6085055955E-03

    ------------------------------------------------
       NWT REQUIRED            7 OUTER ITERATIONS 
       AND A TOTAL OF         13 INNER ITERATIONS.
    ------------------------------------------------

 NO OUTPUT CONTROL FOR STRESS PERIOD    9   TIME STEP    7
 
 SOLVING FOR HEAD 
                                                   Max.-Head-Change                         Max.-Flux-Residual
  Residual-Control   Outer-Iter.   Inner-Iter.     Column Row Layer    Maximum-Head-Change  Column Row Layer    Maximum-Flux-Residual          L2-NORM 
          0                 1           2             5    8     1       0.5387113679E-01       5    8    1         0.2936856868E+01      0.7046178864E+01
          0                 2           2             5    7     1      -0.7143406700E-01       5    8    1        -0.3931564990E+01      0.9555244252E+01
          0                 3           2             5    7     1       0.4863283915E-02       5    8    1         0.2751477064E+00      0.6707304995E+00
          0                 4           2             4    7     1      -0.1606368528E-02       5    8    1        -0.9143206150E-01      0.2236745287E+00
          0                 5           2             4    7     1      -0.2350952499E-01       4    7    1        -0.1333229363E+01      0.3265726368E+01
          0                 6           2             4    7     1       0.2874328645E-03       4    7    1         0.1675192141E-01      0.4103942618E-01
          0                 7           1             4    7     1       0.4224553287E-05       5    8    1         0.2466687467E-03      0.6048493496E-03

    ------------------------------------------------
       NWT REQUIRED            7 OUTER ITERATIONS 
       AND A TOTAL OF         13 INNER ITERATIONS.
    ------------------------------------------------

 NO OUTPUT CONTROL FOR STRESS PERIOD    9   TIME STEP    8
 
 SOLVING FOR HEAD 
                                                   Max.-Head-Change                         Max.-Flux-Residual
  Residual-Control   Outer-Iter.   Inner-Iter.     Column Row Layer    Maximum-Head-Change  Column Row Layer    Maximum-Flux-Residual          L2-NORM 
          0                 1           2             5    8     1       0.5412650505E-01       5    8    1         0.2950062832E+01      0.7095923188E+01
          0                 2           2             5    7     1      -0.7153750595E-01       5    8    1        -0.3935790212E+01      0.9568064904E+01
          0                 3           2             5    7     1       0.4870323310E-02       5    8    1         0.2754432362E+00      0.6716183903E+00
          0                 4           2             4    7     1      -0.1575258379E-02       5    8    1        -0.8966077769E-01      0.2193437531E+00
          0                 5           2             4    7     1      -0.2349028370E-01       4    7    1        -0.1332135920E+01      0.3263048092E+01
          0                 6           2             4    7     1       0.2872281487E-03       4    7    1         0.1673996199E-01      0.4101012594E-01
          0                 7           1             4    7     1       0.4221544733E-05       5    8    1         0.2464926451E-03      0.6044173590E-03

    ------------------------------------------------
       NWT REQUIRED            7 OUTER ITERATIONS 
       AND A TOTAL OF         13 INNER ITERATIONS.
    ------------------------------------------------

 NO OUTPUT CONTROL FOR STRESS PERIOD    9   TIME STEP    9
 
 SOLVING FOR HEAD 
                                                   Max.-Head-Change                         Max.-Flux-Residual
  Residual-Control   Outer-Iter.   Inner-Iter.     Column Row Layer    Maximum-Head-Change  Column Row Layer    Maximum-Flux-Residual          L2-NORM 
          0                 1           2             5    8     1       0.5438262621E-01       5    8    1         0.2963331719E+01      0.7145121574E+01
          0                 2           2             5    7     1      -0.7163966613E-01       5    8    1        -0.3940013143E+01      0.9580771448E+01
          0                 3           2             5    7     1       0.4877279907E-02       5    8    1         0.2757388438E+00      0.6724989518E+00
          0                 4           2             4    7     1      -0.2503446801E-01       5    8    1        -0.1420038526E+01      0.3478056586E+01
          0                 5           2             4    7     1       0.3058842100E-03       4    7    1         0.1782736771E-01      0.4367956835E-01
          0                 6           1             4    7     1       0.4498709773E-05       5    8    1         0.2627321228E-03      0.6496630829E-03

    ------------------------------------------------
       NWT REQUIRED            6 OUTER ITERATIONS 
       AND A TOTAL OF         11 INNER ITERATIONS.
    ------------------------------------------------

 NO OUTPUT CONTROL FOR STRESS PERIOD    9   TIME STEP   10
 
 SOLVING FOR HEAD 
                                                   Max.-Head-Change                         Max.-Flux-Residual
  Residual-Control   Outer-Iter.   Inner-Iter.     Column Row Layer    Maximum-Head-Change  Column Row Layer    Maximum-Flux-Residual          L2-NORM 
          0                 1           2             5    8     1       0.5463908888E-01       5    8    1         0.2976639444E+01      0.7193740967E+01
          0                 2           2             5    7     1      -0.7174063609E-01       5    8    1        -0.3944232567E+01      0.9593371793E+01
          0                 3           2             5    7     1       0.4884151181E-02       5    8    1         0.2760339673E+00      0.6733713922E+00
          0                 4           2             4    7     1      -0.2498399432E-01       5    8    1        -0.1417167401E+01      0.3471030394E+01
          0                 5           2             4    7     1       0.3053027626E-03       4    7    1         0.1779345330E-01      0.4359635776E-01
          0                 6           1             4    7     1       0.4490158362E-05       5    8    1         0.2622311411E-03      0.6429304758E-03

    ------------------------------------------------
       NWT REQUIRED            6 OUTER ITERATIONS 
       AND A TOTAL OF         11 INNER ITERATIONS.
    ------------------------------------------------

 NO OUTPUT CONTROL FOR STRESS PERIOD    9   TIME STEP   11
 
 SOLVING FOR HEAD 
                                                   Max.-Head-Change                         Max.-Flux-Residual
  Residual-Control   Outer-Iter.   Inner-Iter.     Column Row Layer    Maximum-Head-Change  Column Row Layer    Maximum-Flux-Residual          L2-NORM 
          0                 1           2             5    8     1       0.5489552566E-01       5    8    1         0.2989964828E+01      0.7241762911E+01
          0                 2           2             5    7     1      -0.7184043127E-01       5    8    1        -0.3948445413E+01      0.9605864904E+01
          0                 3           2             5    7     1       0.4890951014E-02       5    8    1         0.2763291070E+00      0.6742379338E+00
          0                 4           2             4    7     1      -0.2493367174E-01       5    8    1        -0.1414305097E+01      0.3464025551E+01
          0                 5           2             4    7     1       0.3047395405E-03       4    7    1         0.1776060159E-01      0.4351575316E-01
          0                 6           1             4    7     1       0.4457332081E-05       5    8    1         0.2603153312E-03      0.6382435692E-03

    ------------------------------------------------
       NWT REQUIRED            6 OUTER ITERATIONS 
       AND A TOTAL OF         11 INNER ITERATIONS.
    ------------------------------------------------

 NO OUTPUT CONTROL FOR STRESS PERIOD    9   TIME STEP   12
 
 SOLVING FOR HEAD 
                                                   Max.-Head-Change                         Max.-Flux-Residual
  Residual-Control   Outer-Iter.   Inner-Iter.     Column Row Layer    Maximum-Head-Change  Column Row Layer    Maximum-Flux-Residual          L2-NORM 
          0                 1           2             5    8     1       0.5515161407E-01       5    8    1         0.3003288830E+01      0.7289184886E+01
          0                 2           2             5    7     1      -0.7193911968E-01       5    8    1        -0.3952650253E+01      0.9618253326E+01
          0                 3           2             5    7     1       0.4897671206E-02       5    8    1         0.2766234478E+00      0.6750966197E+00
          0                 4           2             4    7     1      -0.2488348728E-01       5    8    1        -0.1411450868E+01      0.3457040239E+01
          0                 5           2             4    7     1       0.3041616598E-03       4    7    1         0.1772689590E-01      0.4343305957E-01
          0                 6           1             4    7     1       0.4473375793E-05       5    8    1         0.2612480059E-03      0.6405217916E-03

    ------------------------------------------------
       NWT REQUIRED            6 OUTER ITERATIONS 
       AND A TOTAL OF         11 INNER ITERATIONS.
    ------------------------------------------------

 NO OUTPUT CONTROL FOR STRESS PERIOD    9   TIME STEP   13
 
 SOLVING FOR HEAD 
                                                   Max.-Head-Change                         Max.-Flux-Residual
  Residual-Control   Outer-Iter.   Inner-Iter.     Column Row Layer    Maximum-Head-Change  Column Row Layer    Maximum-Flux-Residual          L2-NORM 
          0                 1           2             5    6     1       0.5541484730E-01       5    8    1         0.3016586830E+01      0.7335988164E+01
          0                 2           2             5    7     1      -0.7203671716E-01       5    8    1        -0.3956844864E+01      0.9630538793E+01
          0                 3           2             5    7     1       0.4904317112E-02       5    8    1         0.2769170723E+00      0.6759539984E+00
          0                 4           2             4    7     1      -0.2483342441E-01       5    8    1        -0.1408603761E+01      0.3450072160E+01
          0                 5           2             4    7     1       0.3035852785E-03       4    7    1         0.1769327801E-01      0.4335058888E-01
          0                 6           1             4    7     1       0.4464898536E-05       5    8    1         0.2607515023E-03      0.6393049292E-03

    ------------------------------------------------
       NWT REQUIRED            6 OUTER ITERATIONS 
       AND A TOTAL OF         11 INNER ITERATIONS.
    ------------------------------------------------

 NO OUTPUT CONTROL FOR STRESS PERIOD    9   TIME STEP   14
 
 SOLVING FOR HEAD 
                                                   Max.-Head-Change                         Max.-Flux-Residual
  Residual-Control   Outer-Iter.   Inner-Iter.     Column Row Layer    Maximum-Head-Change  Column Row Layer    Maximum-Flux-Residual          L2-NORM 
          0                 1           2             5    6     1       0.5568046797E-01       5    8    1         0.3029852423E+01      0.7382182932E+01
          0                 2           2             5    7     1      -0.7213327282E-01       5    8    1        -0.3961028368E+01      0.9642721925E+01
          0                 3           2             5    7     1       0.4910887799E-02       5    8    1         0.2772096807E+00      0.6767980570E+00
          0                 4           2             4    7     1      -0.2478349143E-01       5    8    1        -0.1405764243E+01      0.3443122443E+01
          0                 5           2             4    7     1       0.3030104990E-03       4    7    1         0.1765975387E-01      0.4326834848E-01
          0                 6           1             4    7     1       0.4456445587E-05       5    8    1         0.2602564227E-03      0.6381031354E-03

    ------------------------------------------------
       NWT REQUIRED            6 OUTER ITERATIONS 
       AND A TOTAL OF         11 INNER ITERATIONS.
    ------------------------------------------------

 NO OUTPUT CONTROL FOR STRESS PERIOD    9   TIME STEP   15
 
 SOLVING FOR HEAD 
                                                   Max.-Head-Change                         Max.-Flux-Residual
  Residual-Control   Outer-Iter.   Inner-Iter.     Column Row Layer    Maximum-Head-Change  Column Row Layer    Maximum-Flux-Residual          L2-NORM 
          0                 1           2             5    6     1       0.5594400715E-01       5    8    1         0.3043072620E+01      0.7427761980E+01
          0                 2           2             5    7     1      -0.7222881828E-01       5    8    1        -0.3965199225E+01      0.9654803987E+01
          0                 3           2             5    7     1       0.4917381143E-02       5    8    1         0.2775009269E+00      0.6776339912E+00
          0                 4           2             4    7     1      -0.2473368831E-01       5    8    1        -0.1402932298E+01      0.3436191074E+01
          0                 5           2             4    7     1       0.3024536823E-03       4    7    1         0.1762727710E-01      0.4318867346E-01
          0                 6           1             4    7     1       0.4448256435E-05       5    8    1         0.2597767839E-03      0.6369160154E-03

    ------------------------------------------------
       NWT REQUIRED            6 OUTER ITERATIONS 
       AND A TOTAL OF         11 INNER ITERATIONS.
    ------------------------------------------------

 NO OUTPUT CONTROL FOR STRESS PERIOD    9   TIME STEP   16
 
 SOLVING FOR HEAD 
                                                   Max.-Head-Change                         Max.-Flux-Residual
  Residual-Control   Outer-Iter.   Inner-Iter.     Column Row Layer    Maximum-Head-Change  Column Row Layer    Maximum-Flux-Residual          L2-NORM 
          0                 1           2             5    6     1       0.5620535246E-01       5    8    1         0.3056235905E+01      0.7472725625E+01
          0                 2           2             5    7     1      -0.7232340841E-01       5    8    1        -0.3969357479E+01      0.9666788572E+01
          0                 3           2             5    7     1       0.4923843653E-02       5    8    1         0.2777931980E+00      0.6784679322E+00
          0                 4           2             4    7     1      -0.2468404632E-01       5    8    1        -0.1400109693E+01      0.3429282396E+01
          0                 5           2             4    7     1       0.3018824908E-03       4    7    1         0.1759396285E-01      0.4310695483E-01
          0                 6           1             4    7     1       0.4439855685E-05       5    8    1         0.2592848532E-03      0.6357115373E-03

    ------------------------------------------------
       NWT REQUIRED            6 OUTER ITERATIONS 
       AND A TOTAL OF         11 INNER ITERATIONS.
    ------------------------------------------------

 NO OUTPUT CONTROL FOR STRESS PERIOD    9   TIME STEP   17
 
 SOLVING FOR HEAD 
                                                   Max.-Head-Change                         Max.-Flux-Residual
  Residual-Control   Outer-Iter.   Inner-Iter.     Column Row Layer    Maximum-Head-Change  Column Row Layer    Maximum-Flux-Residual          L2-NORM 
          0                 1           2             5    6     1       0.5646441718E-01       5    8    1         0.3069324419E+01      0.7517066130E+01
          0                 2           2             5    7     1      -0.7241701851E-01       5    8    1        -0.3973499910E+01      0.9678673437E+01
          0                 3           2             5    7     1       0.4930205210E-02       5    8    1         0.2780824541E+00      0.6792905127E+00
          0                 4           2             4    7     1      -0.2463449542E-01       5    8    1        -0.1397292449E+01      0.3422386672E+01
          0                 5           2             4    7     1       0.3013042420E-03       4    7    1         0.1756023763E-01      0.4302423111E-01
          0                 6           1             4    7     1       0.4431350984E-05       5    8    1         0.2587868958E-03      0.6344908864E-03

    ------------------------------------------------
       NWT REQUIRED            6 OUTER ITERATIONS 
       AND A TOTAL OF         11 INNER ITERATIONS.
    ------------------------------------------------

 NO OUTPUT CONTROL FOR STRESS PERIOD    9   TIME STEP   18
 
 SOLVING FOR HEAD 
                                                   Max.-Head-Change                         Max.-Flux-Residual
  Residual-Control   Outer-Iter.   Inner-Iter.     Column Row Layer    Maximum-Head-Change  Column Row Layer    Maximum-Flux-Residual          L2-NORM 
          0                 1           2             5    6     1       0.5672097213E-01       5    8    1         0.3082345325E+01      0.7560802652E+01
          0                 2           2             5    7     1      -0.7250974038E-01       5    8    1        -0.3977628191E+01      0.9690463165E+01
          0                 3           2             5    7     1       0.4936523393E-02       5    8    1         0.2783716732E+00      0.6801088312E+00
          0                 4           2             4    7     1      -0.2458509679E-01       5    8    1        -0.1394484025E+01      0.3415512381E+01
          0                 5           2             4    7     1       0.3007524133E-03       4    7    1         0.1752805269E-01      0.4294528073E-01
          0                 6           1             4    7     1       0.4423235315E-05       5    8    1         0.2583116725E-03      0.6333431411E-03

    ------------------------------------------------
       NWT REQUIRED            6 OUTER ITERATIONS 
       AND A TOTAL OF         11 INNER ITERATIONS.
    ------------------------------------------------

 NO OUTPUT CONTROL FOR STRESS PERIOD    9   TIME STEP   19
 
 SOLVING FOR HEAD 
                                                   Max.-Head-Change                         Max.-Flux-Residual
  Residual-Control   Outer-Iter.   Inner-Iter.     Column Row Layer    Maximum-Head-Change  Column Row Layer    Maximum-Flux-Residual          L2-NORM 
          0                 1           2             5    6     1       0.5697526757E-01       5    8    1         0.3095275010E+01      0.7603925543E+01
          0                 2           2             5    7     1      -0.7260156097E-01       5    8    1        -0.3981740198E+01      0.9702159092E+01
          0                 3           2             5    7     1       0.4942788757E-02       5    8    1         0.2786602298E+00      0.6809218314E+00
          0                 4           2             4    7     1      -0.2453582907E-01       5    8    1        -0.1391683203E+01      0.3408656553E+01
          0                 5           2             4    7     1       0.3001776563E-03       4    7    1         0.1749453171E-01      0.4286306295E-01
          0                 6           1             4    7     1       0.4414782254E-05       5    8    1         0.2578167810E-03      0.6321141626E-03

    ------------------------------------------------
       NWT REQUIRED            6 OUTER ITERATIONS 
       AND A TOTAL OF         11 INNER ITERATIONS.
    ------------------------------------------------

 NO OUTPUT CONTROL FOR STRESS PERIOD    9   TIME STEP   20
 
 SOLVING FOR HEAD 
                                                   Max.-Head-Change                         Max.-Flux-Residual
  Residual-Control   Outer-Iter.   Inner-Iter.     Column Row Layer    Maximum-Head-Change  Column Row Layer    Maximum-Flux-Residual          L2-NORM 
          0                 1           2             5    6     1       0.5722694263E-01       5    8    1         0.3108107124E+01      0.7646441348E+01
          0                 2           2             5    7     1      -0.7269250371E-01       5    8    1        -0.3985834342E+01      0.9713759962E+01
          0                 3           2             5    7     1       0.4948972959E-02       5    8    1         0.2789463438E+00      0.6817254267E+00
          0                 4           2             4    7     1      -0.2448667014E-01       5    8    1        -0.1388888718E+01      0.3401816103E+01
          0                 5           2             4    7     1       0.2996287834E-03       4    7    1         0.1746251975E-01      0.4278454190E-01
          0                 6           1             4    7     1       0.4406710159E-05       5    8    1         0.2573441525E-03      0.6309562798E-03

    ------------------------------------------------
       NWT REQUIRED            6 OUTER ITERATIONS 
       AND A TOTAL OF         11 INNER ITERATIONS.
    ------------------------------------------------

 NO OUTPUT CONTROL FOR STRESS PERIOD    9   TIME STEP   21
 
 SOLVING FOR HEAD 
                                                   Max.-Head-Change                         Max.-Flux-Residual
  Residual-Control   Outer-Iter.   Inner-Iter.     Column Row Layer    Maximum-Head-Change  Column Row Layer    Maximum-Flux-Residual          L2-NORM 
          0                 1           2             5    6     1       0.5747611284E-01       5    8    1         0.3120852115E+01      0.7688357392E+01
          0                 2           2             5    7     1      -0.7278262546E-01       5    8    1        -0.3989912622E+01      0.9725270248E+01
          0                 3           2             5    7     1       0.4955109810E-02       5    8    1         0.2792318240E+00      0.6825239921E+00
          0                 4           2             4    7     1      -0.2443763390E-01       5    8    1        -0.1386101360E+01      0.3394992961E+01
          0                 5           2             4    7     1       0.2990405185E-03       4    7    1         0.1742821213E-01      0.4270040389E-01
          0                 6           1             4    7     1       0.4398058157E-05       5    8    1         0.2568377490E-03      0.6297148720E-03

    ------------------------------------------------
       NWT REQUIRED            6 OUTER ITERATIONS 
       AND A TOTAL OF         11 INNER ITERATIONS.
    ------------------------------------------------

 NO OUTPUT CONTROL FOR STRESS PERIOD    9   TIME STEP   22
 
 SOLVING FOR HEAD 
                                                   Max.-Head-Change                         Max.-Flux-Residual
  Residual-Control   Outer-Iter.   Inner-Iter.     Column Row Layer    Maximum-Head-Change  Column Row Layer    Maximum-Flux-Residual          L2-NORM 
          0                 1           2             5    6     1       0.5772274216E-01       5    8    1         0.3133488936E+01      0.7729676305E+01
          0                 2           2             5    7     1      -0.7287191930E-01       5    8    1        -0.3993972933E+01      0.9736690354E+01
          0                 3           2             5    7     1       0.4961198840E-02       5    8    1         0.2795165231E+00      0.6833175115E+00
          0                 4           2             4    7     1      -0.2438877091E-01       5    8    1        -0.1383323984E+01      0.3388194137E+01
          0                 5           2             4    7     1       0.2985198384E-03       4    7    1         0.1739784405E-01      0.4262591225E-01
          0                 6           1             4    7     1       0.4390400521E-05       5    8    1         0.2563893527E-03      0.6286158117E-03

    ------------------------------------------------
       NWT REQUIRED            6 OUTER ITERATIONS 
       AND A TOTAL OF         11 INNER ITERATIONS.
    ------------------------------------------------

 NO OUTPUT CONTROL FOR STRESS PERIOD    9   TIME STEP   23
 
 SOLVING FOR HEAD 
                                                   Max.-Head-Change                         Max.-Flux-Residual
  Residual-Control   Outer-Iter.   Inner-Iter.     Column Row Layer    Maximum-Head-Change  Column Row Layer    Maximum-Flux-Residual          L2-NORM 
          0                 1           2             5    6     1       0.5796681356E-01       5    8    1         0.3146013614E+01      0.7770399526E+01
          0                 2           2             5    7     1      -0.7296040915E-01       5    8    1        -0.3998014162E+01      0.9748020736E+01
          0                 3           2             5    7     1       0.4967203182E-02       5    8    1         0.2797982175E+00      0.6841008620E+00
          0                 4           2             4    7     1      -0.2433996199E-01       5    8    1        -0.1380549823E+01      0.3381403065E+01
          0                 5           2             4    7     1       0.2979343767E-03       4    7    1         0.1736370048E-01      0.4254218067E-01
          0                 6           1             4    7     1       0.4381790077E-05       5    8    1         0.2558854173E-03      0.6273806834E-03

    ------------------------------------------------
       NWT REQUIRED            6 OUTER ITERATIONS 
       AND A TOTAL OF         11 INNER ITERATIONS.
    ------------------------------------------------

 NO OUTPUT CONTROL FOR STRESS PERIOD    9   TIME STEP   24
 
 SOLVING FOR HEAD 
                                                   Max.-Head-Change                         Max.-Flux-Residual
  Residual-Control   Outer-Iter.   Inner-Iter.     Column Row Layer    Maximum-Head-Change  Column Row Layer    Maximum-Flux-Residual          L2-NORM 
          0                 1           2             5    6     1       0.5820815558E-01       5    8    1         0.3158431230E+01      0.7810543070E+01
          0                 2           2             5    7     1      -0.7304813253E-01       5    8    1        -0.4002037772E+01      0.9759264086E+01
          0                 3           2             5    7     1       0.4973193826E-02       5    8    1         0.2800808242E+00      0.6848834715E+00
          0                 4           2             4    7     1      -0.2429132766E-01       5    8    1        -0.1377785712E+01      0.3374636487E+01
          0                 5           2             4    7     1       0.2973837921E-03       4    7    1         0.1733159002E-01      0.4246342937E-01
          0                 6           1             4    7     1       0.4373692107E-05       5    8    1         0.2554114292E-03      0.6262282509E-03

    ------------------------------------------------
       NWT REQUIRED            6 OUTER ITERATIONS 
       AND A TOTAL OF         11 INNER ITERATIONS.
    ------------------------------------------------

 NO OUTPUT CONTROL FOR STRESS PERIOD    9   TIME STEP   25
 
 SOLVING FOR HEAD 
                                                   Max.-Head-Change                         Max.-Flux-Residual
  Residual-Control   Outer-Iter.   Inner-Iter.     Column Row Layer    Maximum-Head-Change  Column Row Layer    Maximum-Flux-Residual          L2-NORM 
          0                 1           2             5    6     1       0.5844676381E-01       5    8    1         0.3170738345E+01      0.7850095459E+01
          0                 2           2             5    7     1      -0.7313508546E-01       5    8    1        -0.4006042941E+01      0.9770419909E+01
          0                 3           2             5    7     1       0.4979102065E-02       5    8    1         0.2803604711E+00      0.6856557782E+00
          0                 4           2             4    7     1      -0.2424279795E-01       5    8    1        -0.1375027680E+01      0.3367884676E+01
          0                 5           2             4    7     1       0.2968344976E-03       4    7    1         0.1729955511E-01      0.4238486459E-01
          0                 6           1             4    7     1       0.4365614075E-05       5    8    1         0.2549385640E-03      0.6250600809E-03

    ------------------------------------------------
       NWT REQUIRED            6 OUTER ITERATIONS 
       AND A TOTAL OF         11 INNER ITERATIONS.
    ------------------------------------------------

 NO OUTPUT CONTROL FOR STRESS PERIOD    9   TIME STEP   26
 
 SOLVING FOR HEAD 
                                                   Max.-Head-Change                         Max.-Flux-Residual
  Residual-Control   Outer-Iter.   Inner-Iter.     Column Row Layer    Maximum-Head-Change  Column Row Layer    Maximum-Flux-Residual          L2-NORM 
          0                 1           2             5    6     1       0.5868279164E-01       5    8    1         0.3182924741E+01      0.7889084141E+01
          0                 2           2             5    7     1      -0.7322130616E-01       5    8    1        -0.4010028887E+01      0.9781492551E+01
          0                 3           2             5    7     1       0.4984968999E-02       5    8    1         0.2806392490E+00      0.6864238713E+00
          0                 4           2             4    7     1      -0.2419437461E-01       5    8    1        -0.1372275810E+01      0.3361147856E+01
          0                 5           2             4    7     1       0.2962619715E-03       4    7    1         0.1726616639E-01      0.4230298759E-01
          0                 6           1             4    7     1       0.4357193386E-05       5    8    1         0.2544458096E-03      0.6238523794E-03

    ------------------------------------------------
       NWT REQUIRED            6 OUTER ITERATIONS 
       AND A TOTAL OF         11 INNER ITERATIONS.
    ------------------------------------------------

 NO OUTPUT CONTROL FOR STRESS PERIOD    9   TIME STEP   27
 
 SOLVING FOR HEAD 
                                                   Max.-Head-Change                         Max.-Flux-Residual
  Residual-Control   Outer-Iter.   Inner-Iter.     Column Row Layer    Maximum-Head-Change  Column Row Layer    Maximum-Flux-Residual          L2-NORM 
          0                 1           2             5    6     1       0.5891623454E-01       5    8    1         0.3194988908E+01      0.7927506023E+01
          0                 2           2             5    7     1      -0.7330679272E-01       5    8    1        -0.4013995219E+01      0.9792480366E+01
          0                 3           2             5    7     1       0.4990803050E-02       5    8    1         0.2809176075E+00      0.6871881664E+00
          0                 4           2             4    7     1      -0.2414611256E-01       5    8    1        -0.1369533222E+01      0.3354433667E+01
          0                 5           2             4    7     1       0.2957241585E-03       4    7    1         0.1723480126E-01      0.4222606771E-01
          0                 6           1             4    7     1       0.4324739894E-05       5    8    1         0.2525523453E-03      0.6192202296E-03

    ------------------------------------------------
       NWT REQUIRED            6 OUTER ITERATIONS 
       AND A TOTAL OF         11 INNER ITERATIONS.
    ------------------------------------------------

 NO OUTPUT CONTROL FOR STRESS PERIOD    9   TIME STEP   28
 
 SOLVING FOR HEAD 
                                                   Max.-Head-Change                         Max.-Flux-Residual
  Residual-Control   Outer-Iter.   Inner-Iter.     Column Row Layer    Maximum-Head-Change  Column Row Layer    Maximum-Flux-Residual          L2-NORM 
          0                 1           2             5    6     1       0.5914694634E-01       5    8    1         0.3206937650E+01      0.7965366065E+01
          0                 2           2             5    7     1      -0.7339157134E-01       5    8    1        -0.4017943095E+01      0.9803386404E+01
          0                 3           2             5    7     1       0.4996576062E-02       5    8    1         0.2811939588E+00      0.6879452313E+00
          0                 4           2             4    7     1      -0.2409793932E-01       5    8    1        -0.1366795797E+01      0.3347732019E+01
          0                 5           2             4    7     1       0.2951465352E-03       4    7    1         0.1720111608E-01      0.4214347009E-01
          0                 6           1             4    7     1       0.4316244827E-05       5    8    1         0.2520552553E-03      0.6180020293E-03

    ------------------------------------------------
       NWT REQUIRED            6 OUTER ITERATIONS 
       AND A TOTAL OF         11 INNER ITERATIONS.
    ------------------------------------------------

 NO OUTPUT CONTROL FOR STRESS PERIOD    9   TIME STEP   29
 
 SOLVING FOR HEAD 
                                                   Max.-Head-Change                         Max.-Flux-Residual
  Residual-Control   Outer-Iter.   Inner-Iter.     Column Row Layer    Maximum-Head-Change  Column Row Layer    Maximum-Flux-Residual          L2-NORM 
          0                 1           2             5    6     1       0.5937509179E-01       5    8    1         0.3218769352E+01      0.8002687895E+01
          0                 2           2             4    7     1      -0.7348247237E-01       5    8    1        -0.4021872116E+01      0.9814212366E+01
          0                 3           2             4    7     1       0.5002741165E-02       5    8    1         0.2814682749E+00      0.6886949281E+00
          0                 4           2             4    7     1      -0.2404990120E-01       5    8    1        -0.1364066157E+01      0.3341049343E+01
          0                 5           2             4    7     1       0.2945951212E-03       4    7    1         0.1716895878E-01      0.4206461408E-01
          0                 6           1             4    7     1       0.4332678802E-05       5    8    1         0.2530111967E-03      0.6203359592E-03

    ------------------------------------------------
       NWT REQUIRED            6 OUTER ITERATIONS 
       AND A TOTAL OF         11 INNER ITERATIONS.
    ------------------------------------------------

 NO OUTPUT CONTROL FOR STRESS PERIOD    9   TIME STEP   30



 STREAM LISTING     PERIOD      9   STEP       30

 LAYER ROW COL. STREAM  RCH.  FLOW INTO     FLOW TO   FLOW OUT OF   OVRLND.     DIRECT     STREAM       STREAM     STREAM     STREAM   STREAMBED  STREAMBED
                SEG.NO.  NO.  STRM. RCH.    AQUIFER    STRM. RCH.    RUNOFF     PRECIP       ET          HEAD       DEPTH      WIDTH   CONDCTNC.   GRADIENT

   1    1    1     1     1    2.2875E+01  2.3514E-01   2.2640E+01  0.000E+00  0.000E+00  0.000E+00  1.09419E+03  1.146E+00  1.260E+01  5.672E-02  1.382E+00
   1    2    2     1     2    2.2640E+01  3.6351E-01   2.2276E+01  0.000E+00  0.000E+00  0.000E+00  1.08920E+03  1.141E+00  1.254E+01  8.778E-02  1.380E+00
   1    3    3     1     3    2.2276E+01  3.0939E-01   2.1967E+01  0.000E+00  0.000E+00  0.000E+00  1.08355E+03  1.136E+00  1.247E+01  7.481E-02  1.379E+00
   1    3    4     1     4    2.1967E+01  2.8439E-01   2.1682E+01  0.000E+00  0.000E+00  0.000E+00  1.07854E+03  1.131E+00  1.240E+01  6.885E-02  1.377E+00
   1    4    5     2     1    1.9682E+01  3.1521E-01   1.9367E+01  0.000E+00  0.000E+00  0.000E+00  1.07298E+03  1.041E+00  1.200E+01  7.800E-02  1.347E+00
   1    5    6     2     2    1.9367E+01  2.4193E-01   1.9125E+01  0.000E+00  0.000E+00  0.000E+00  1.06754E+03  1.032E+00  1.200E+01  6.000E-02  1.344E+00
   1    6    6     2     3    1.9125E+01  2.4146E-01   1.8884E+01  0.000E+00  0.000E+00  0.000E+00  1.06282E+03  1.024E+00  1.200E+01  6.000E-02  1.341E+00
   1    7    6     2     4    1.8884E+01  2.4099E-01   1.8643E+01  0.000E+00  0.000E+00  0.000E+00  1.05809E+03  1.017E+00  1.200E+01  6.000E-02  1.339E+00
   1    8    6     2     5    1.8643E+01  2.4052E-01   1.8402E+01  0.000E+00  0.000E+00  0.000E+00  1.05337E+03  1.009E+00  1.200E+01  6.000E-02  1.336E+00
   1    3    5     3     1    2.0000E+00  2.8252E-01   1.7175E+00  0.000E+00  0.000E+00  0.000E+00  1.07555E+03  1.909E+00  9.636E+00  7.227E-02  1.955E+00
   1    3    6     3     2    1.7175E+00  2.4905E-01   1.4684E+00  0.000E+00  0.000E+00  0.000E+00  1.07264E+03  1.727E+00  8.909E+00  6.682E-02  1.864E+00
   1    3    7     3     3    1.4684E+00  1.9718E-01   1.2712E+00  0.000E+00  0.000E+00  0.000E+00  1.06987E+03  1.555E+00  8.218E+00  5.547E-02  1.777E+00
   1    4    8     3     4    1.2712E+00  2.2567E-01   1.0456E+00  0.000E+00  0.000E+00  0.000E+00  1.06682E+03  1.364E+00  7.455E+00  6.709E-02  1.682E+00
   1    5    8     3     5    1.0456E+00  1.5790E-01   8.8768E-01  0.000E+00  0.000E+00  0.000E+00  1.06362E+03  1.164E+00  6.655E+00  4.991E-02  1.582E+00
   1    6    8     3     6    8.8768E-01  5.5980E-02   8.3170E-01  0.000E+00  0.000E+00  0.000E+00  1.06158E+03  1.036E+00  6.145E+00  1.844E-02  1.518E+00
   1    5   10     4     1    1.0000E+01  9.0919E-02   9.9091E+00  0.000E+00  0.000E+00  0.000E+00  1.07836E+03  6.368E-01  1.000E+01  2.500E-02  1.212E+00
   1    5    9     4     2    9.9091E+00  1.8158E-01   9.7275E+00  0.000E+00  0.000E+00  0.000E+00  1.07154E+03  6.315E-01  1.000E+01  5.000E-02  1.211E+00
   1    6    8     4     3    9.7275E+00  1.2689E-01   9.6006E+00  0.000E+00  0.000E+00  0.000E+00  1.06381E+03  6.256E-01  1.000E+01  3.500E-02  1.209E+00
   1    6    8     5     1    1.0432E+01  2.2686E-01   1.0205E+01  0.000E+00  0.000E+00  0.000E+00  1.05868E+03  6.790E-01  1.542E+01  6.166E-02  1.226E+00
   1    7    7     5     2    1.0205E+01  2.7894E-01   9.9265E+00  0.000E+00  0.000E+00  0.000E+00  1.05417E+03  6.732E-01  1.519E+01  7.594E-02  1.224E+00
   1    8    7     5     3    9.9265E+00  1.9221E-01   9.7343E+00  0.000E+00  0.000E+00  0.000E+00  1.04992E+03  6.676E-01  1.497E+01  5.241E-02  1.223E+00
   1    8    6     5     4    9.7343E+00  1.3577E-01   9.5985E+00  0.000E+00  0.000E+00  0.000E+00  1.04691E+03  6.637E-01  1.482E+01  3.706E-02  1.221E+00
   1    9    6     6     1    9.5985E+00  2.2097E-01   9.3776E+00  0.000E+00  0.000E+00  0.000E+00  1.04341E+03  6.828E-01  1.200E+01  6.000E-02  1.228E+00
   1   10    7     6     2    9.3776E+00  2.2039E-01   9.1572E+00  0.000E+00  0.000E+00  0.000E+00  1.03885E+03  6.732E-01  1.200E+01  6.000E-02  1.224E+00
   1   11    7     6     3    9.1572E+00  2.1981E-01   8.9374E+00  0.000E+00  0.000E+00  0.000E+00  1.03430E+03  6.636E-01  1.200E+01  6.000E-02  1.221E+00
   1   12    7     6     4    8.9374E+00  2.1923E-01   8.7181E+00  0.000E+00  0.000E+00  0.000E+00  1.02974E+03  6.539E-01  1.200E+01  6.000E-02  1.218E+00
   1   13    7     6     5    8.7181E+00 -6.4434E-02   8.7826E+00  0.000E+00  0.000E+00  0.000E+00  1.02656E+03  6.504E-01  1.200E+01  2.400E-01 -8.949E-02
   1   14    9     7     1    1.5000E+02  1.3685E+00   1.4863E+02  0.000E+00  0.000E+00  0.000E+00  1.03987E+03  2.288E+00  5.529E+01  5.593E-01  8.156E-01
   1   13    8     7     2    1.4863E+02  1.9184E+00   1.4671E+02  0.000E+00  0.000E+00  0.000E+00  1.03478E+03  2.279E+00  5.526E+01  6.148E-01  1.040E+00
   1   13    7     7     3    1.4671E+02  1.5975E+00   1.4512E+02  0.000E+00  0.000E+00  0.000E+00  1.02969E+03  2.270E+00  5.521E+01  5.584E-01  9.536E-01
   1   13    6     8     1    1.5390E+02  9.4589E-01   1.5295E+02  0.000E+00  0.000E+00  0.000E+00  1.02472E+03  2.841E+00  4.119E+01  4.198E-01  7.511E-01
   1   13    5     8     2    1.5295E+02  2.0757E-01   1.5274E+02  0.000E+00  0.000E+00  0.000E+00  1.01846E+03  2.837E+00  4.113E+01  4.192E-01  1.651E-01
   1   13    4     8     3    1.5274E+02 -2.3134E+00   1.5506E+02  0.000E+00  0.000E+00  0.000E+00  1.01222E+03  2.844E+00  4.124E+01  4.202E+00 -1.835E-01
   1   13    3     8     4    1.5506E+02 -3.5759E+00   1.5863E+02  0.000E+00  0.000E+00  0.000E+00  1.00599E+03  2.864E+00  4.153E+01  4.232E+00 -2.816E-01
   1   13    2     8     5    1.5863E+02 -2.5602E+00   1.6119E+02  0.000E+00  0.000E+00  0.000E+00  9.99760E+02  2.885E+00  4.184E+01  4.263E+00 -2.002E-01
   1   13    1     8     6    1.6119E+02 -1.9762E+00   1.6317E+02  0.000E+00  0.000E+00  0.000E+00  9.94776E+02  2.901E+00  4.206E+01  2.572E+00 -2.562E-01
   1    8    6     9     1    1.8402E+01  0.0000E+00   1.8402E+01  0.000E+00  0.000E+00  0.000E+00  1.08202E+03  3.267E+00  4.000E+00  0.000E+00  2.089E+00
   1    8    5     9     2    1.8402E+01  0.0000E+00   1.8402E+01  0.000E+00  0.000E+00  0.000E+00  1.08152E+03  3.267E+00  4.000E+00  0.000E+00  2.089E+00





UNSATURATED ZONE PACKAGE VOLUMETRIC BUDGET FOR  TIME STEP    30 STRESS PERIOD    9
  ------------------------------------------------------------------------------



     CUMULATIVE VOLUMES      L**3       RATES FOR THIS TIME STEP      L**3/T
     ------------------                 ------------------------

           IN:                                      IN:
           ---                                      ---
        INFILTRATION =   394049486.4727          INFILTRATION =          49.5665

          OUT:                                     OUT:
          ----                                     ----
              UZF ET =   392111793.1833                UZF ET =          49.5675
        UZF RECHARGE =       73224.0000          UZF RECHARGE =       0.0000E+00

            IN - OUT =     1864469.2894              IN - OUT =      -9.7847E-04

          STORAGE:                                 STORAGE:
          --------                                 --------
      STORAGE CHANGE =     1864471.6124        STORAGE CHANGE =      -9.8014E-04

 PERCENT DISCREPANCY IS DIFFERENCE BETWEEN IN-OUT MINUS CHANGE IN STORAGE
 DIVIDED BY THE AVERAGE OF IN AND OUT TIMES 100

 PERCENT DISCREPANCY =          -0.00     PERCENT DISCREPANCY =           0.00






1
  VOLUMETRIC BUDGET FOR AGRICULTURAL FIELDS AT  END OF TIME STEP   30, STRESS PERIOD   9
  ------------------------------------------------------------------------------

     CUMULATIVE VOLUMES      L**3       RATES FOR THIS TIME STEP      L**3/T
     ------------------                 ------------------------

           IN:                                      IN:
           ---                                      ---
           AG WELLS      =   178250704.0000             AG WELLS      =          30.3164
      DIVERSION SEGMENTS =   197903952.0000        DIVERSION SEGMENTS =          18.4023
           GW IRRIGATION =           0.0000             GW IRRIGATION =           0.0000
           SW IRRIGATION =           0.0000             SW IRRIGATION =           0.0000
        SYSTEM LOSSES GW =           0.0000          SYSTEM LOSSES GW =           0.0000
        SYSTEM LOSSES SW =           0.0000          SYSTEM LOSSES SW =           0.0000

                TOTAL IN =   376154656.0000                  TOTAL IN =          48.7187

          OUT:                                     OUT:
          ----                                     ----
           AG WELLS      =           0.0000             AG WELLS      =           0.0000
      DIVERSION SEGMENTS =           0.0000        DIVERSION SEGMENTS =           0.0000
           GW IRRIGATION =   178250704.0000             GW IRRIGATION =          30.3164
           SW IRRIGATION =   197907808.0000             SW IRRIGATION =          18.4027
        SYSTEM LOSSES GW =           0.0000          SYSTEM LOSSES GW =           0.0000
        SYSTEM LOSSES SW =           0.0000          SYSTEM LOSSES SW =           0.0000

               TOTAL OUT =   376158528.0000                 TOTAL OUT =          48.7190

                IN - OUT =       -3872.0000                  IN - OUT =      -3.6621E-04

     PERCENT DISCREPANCY =          -0.00         PERCENT DISCREPANCY =          -0.00



1
  VOLUMETRIC BUDGET FOR ENTIRE MODEL AT END OF TIME STEP   30, STRESS PERIOD   9
  ------------------------------------------------------------------------------

     CUMULATIVE VOLUMES      L**3       RATES FOR THIS TIME STEP      L**3/T
     ------------------                 ------------------------

           IN:                                      IN:
           ---                                      ---
             STORAGE     =   186610256.0000               STORAGE     =          29.5253
       CONSTANT HEAD     =           0.0000         CONSTANT HEAD     =           0.0000
     HEAD DEP BOUNDS     =     6082178.5000       HEAD DEP BOUNDS     =           0.2880
      STREAM LEAKAGE     =   250384752.0000        STREAM LEAKAGE     =          11.7923
        UZF RECHARGE     =       73223.9531          UZF RECHARGE     =           0.0000
               GW ET     =           0.0000                 GW ET     =           0.0000
     SURFACE LEAKAGE     =           0.0000       SURFACE LEAKAGE     =           0.0000
           AG WELLS      =           0.0000             AG WELLS      =           0.0000

                TOTAL IN =   443150400.0000                  TOTAL IN =          41.6055

          OUT:                                     OUT:
          ----                                     ----
             STORAGE     =    39865088.0000               STORAGE     =           0.5123
       CONSTANT HEAD     =           0.0000         CONSTANT HEAD     =           0.0000
     HEAD DEP BOUNDS     =     6088103.5000       HEAD DEP BOUNDS     =           0.2867
      STREAM LEAKAGE     =   218949488.0000        STREAM LEAKAGE     =          10.4902
        UZF RECHARGE     =           0.0000          UZF RECHARGE     =           0.0000
               GW ET     =           0.0000                 GW ET     =           0.0000
     SURFACE LEAKAGE     =           0.0000       SURFACE LEAKAGE     =           0.0000
           AG WELLS      =   178250704.0000             AG WELLS      =          30.3164

               TOTAL OUT =   443153408.0000                 TOTAL OUT =          41.6055

                IN - OUT =       -3008.0000                  IN - OUT =       2.2888E-05

     PERCENT DISCREPANCY =          -0.00         PERCENT DISCREPANCY =           0.00






         TIME SUMMARY AT END OF TIME STEP   30 IN STRESS PERIOD    9
                    SECONDS     MINUTES      HOURS       DAYS        YEARS
                    -----------------------------------------------------------
   TIME STEP LENGTH  87667.      1461.1      24.352      1.0147     2.77799E-03
 STRESS PERIOD TIME 2.63000E+06  43833.      730.56      30.440     8.33397E-02
         TOTAL TIME 2.11264E+07 3.52107E+05  5868.4      244.52     0.66945    
1
1
                            STRESS PERIOD NO.   10, LENGTH =   2630000.    
                            -----------------------------------------------

                              NUMBER OF TIME STEPS =    30

                               MULTIPLIER FOR DELT =     1.000

                            INITIAL TIME STEP SIZE =   87666.66    

 REUSING NON-PARAMETER GHB CELLS FROM LAST STRESS PERIOD

      2 GHB CELLS

 REUSING STREAM SEGMENT DATA FROM LAST STRESS PERIOD



            AREAL INFILTRATION RATE
 READING ON UNIT   19 WITH FORMAT: (FREE)              

            1           2           3           4           5           6           7           8           9          10
 ........................................................................................................................
   1   1.0000E-10  2.0000E-10   0.000       0.000       0.000       0.000       0.000       0.000       0.000       0.000    
   2   2.0000E-10  1.0000E-10  2.0000E-10   0.000       0.000      8.0000E-10  8.0000E-10  5.0000E-10   0.000       0.000    
   3    0.000      5.0000E-10  1.0000E-10  1.0000E-10  8.0000E-10  8.0000E-10  5.0000E-10  5.0000E-10   0.000       0.000    
   4   8.0000E-10  5.0000E-10  1.0000E-10  1.0000E-10  1.0000E-10  1.0000E-10  1.0000E-10  1.0000E-10  2.0000E-10   0.000    
   5   8.0000E-10  5.0000E-10  1.0000E-10  1.0000E-10  1.0000E-10  1.0000E-10  1.0000E-10  1.0000E-10  1.0000E-10  1.0000E-10
   6   8.0000E-10  5.0000E-10  5.0000E-10  2.0000E-10  2.0000E-10  1.0000E-10  1.0000E-10  1.0000E-10  1.0000E-10  5.0000E-10
   7   8.0000E-10  5.0000E-10  5.0000E-10  2.0000E-10  2.0000E-10  1.0000E-10  1.0000E-10  2.0000E-10  2.0000E-10   0.000    
   8    0.000      5.0000E-10  5.0000E-10  2.0000E-10  2.0000E-10  1.0000E-10  1.0000E-10  2.0000E-10  5.0000E-10   0.000    
   9    0.000      5.0000E-10  5.0000E-10  2.0000E-10  2.0000E-10  1.0000E-10  1.0000E-10  2.0000E-10  5.0000E-10   0.000    
  10    0.000      5.0000E-10  5.0000E-10  2.0000E-10  2.0000E-10  1.0000E-10  1.0000E-10  2.0000E-10  5.0000E-10  8.0000E-10
  11    0.000      1.0000E-10  1.0000E-10  1.0000E-10  1.0000E-10  1.0000E-10  1.0000E-10  2.0000E-10  5.0000E-10   0.000    
  12   1.0000E-10  1.0000E-10  1.0000E-10  1.0000E-10  1.0000E-10  1.0000E-10  1.0000E-10  1.0000E-10  2.0000E-10   0.000    
  13   1.0000E-10  1.0000E-10  2.0000E-10  2.0000E-10  2.0000E-10  2.0000E-10  2.0000E-10  1.0000E-10  1.0000E-10   0.000    
  14    0.000      2.0000E-10  5.0000E-10  5.0000E-10  5.0000E-10  5.0000E-10  5.0000E-10  2.0000E-10  1.0000E-10   0.000    
  15    0.000       0.000      8.0000E-10  8.0000E-10  8.0000E-10  8.0000E-10   0.000       0.000       0.000       0.000    

                  ET RATE =  7.500000E-08

 USING ET EXTINCTION DEPTH FROM PREVIOUS STRESS PERIOD. CURRENT PERIOD IS:      10

 USING EXTINCTION WATER CONTENT FROM PREVIOUS STRESS PERIOD. CURRENT PERIOD IS:      10

 USING AIR ENTRY PRESSURE FROM PREVIOUS STRESS PERIOD. CURRENT PERIOD IS:      10

 USING ROOT PRESSURE HEAD FROM PREVIOUS STRESS PERIOD. CURRENT PERIOD IS:      10

 USING ROOT ACTIVITY FROM PREVIOUS STRESS PERIOD. CURRENT PERIOD IS:      10

 PROCESSING AG STRESS PERIOD DATA

 READING AG STRESS PERIOD DATA

 READING IRRIGATION SEGMENT

 READING IRRIGATION WELL

 READING SUPPLEMENTAL WELL

 END PROCESSING AG STRESS PERIOD DATA OPTIONS
 
 SOLVING FOR HEAD 
                                                   Max.-Head-Change                         Max.-Flux-Residual
  Residual-Control   Outer-Iter.   Inner-Iter.     Column Row Layer    Maximum-Head-Change  Column Row Layer    Maximum-Flux-Residual          L2-NORM 
          0                 1           2             5    6     1       0.5960009282E-01       5    8    1         0.3230467657E+01      0.8012824937E+01
          0                 2           2             5    6     1      -0.5797410753E-02       5    8    1        -0.3230430663E+00      0.8012519641E+00
          0                 3           2             5    6     1       0.3947826990E-03       5    8    1         0.2261305941E-01      0.5608600016E-01
          0                 4           1             5    6     1      -0.1570873625E-04       5    8    1        -0.9248752488E-03      0.2293781325E-02

    ------------------------------------------------
       NWT REQUIRED            4 OUTER ITERATIONS 
       AND A TOTAL OF          7 INNER ITERATIONS.
    ------------------------------------------------

 NO OUTPUT CONTROL FOR STRESS PERIOD   10   TIME STEP    1
 
 SOLVING FOR HEAD 
                                                   Max.-Head-Change                         Max.-Flux-Residual
  Residual-Control   Outer-Iter.   Inner-Iter.     Column Row Layer    Maximum-Head-Change  Column Row Layer    Maximum-Flux-Residual          L2-NORM 
          0                 1           2             5    6     1       0.5723395898E-01       5    6    1         0.3097515090E+01      0.7775988651E+01
          0                 2           2             5    6     1      -0.5567254049E-02       5    6    1        -0.3097480912E+00      0.7792570905E+00
          0                 3           2             4    7     1      -0.9423253806E-02       4    7    1        -0.5058096445E+00      0.1238532303E+01
          0                 4           2             4    7     1       0.9923934062E-02       4    7    1         0.5475143051E+00      0.1340685777E+01
          0                 5           2             4    7     1      -0.4231603535E-03       4    7    1        -0.2399756293E-01      0.5886144160E-01
          0                 6           1             4    7     1      -0.3238959257E-04       4   13    1        -0.2008579840E-02      0.5674863343E-02

    ------------------------------------------------
       NWT REQUIRED            6 OUTER ITERATIONS 
       AND A TOTAL OF         11 INNER ITERATIONS.
    ------------------------------------------------

 NO OUTPUT CONTROL FOR STRESS PERIOD   10   TIME STEP    2
 
 SOLVING FOR HEAD 
                                                   Max.-Head-Change                         Max.-Flux-Residual
  Residual-Control   Outer-Iter.   Inner-Iter.     Column Row Layer    Maximum-Head-Change  Column Row Layer    Maximum-Flux-Residual          L2-NORM 
          0                 1           2             5    6     1       0.5501064891E-01       5    6    1         0.2974949268E+01      0.7535702895E+01
          0                 2           2             5    7     1      -0.2920652071E-01       5    6    1        -0.1606580711E+01      0.3914584140E+01
          0                 3           2             4    7     1       0.1589055495E-01       5    6    1         0.8803375304E+00      0.2155811197E+01
          0                 4           2             4    7     1       0.9159887678E-02       4    7    1         0.5053568516E+00      0.1237670864E+01
          0                 5           2             4    7     1      -0.3645700937E-03       4    7    1        -0.2067478853E-01      0.5062837009E-01
          0                 6           1             4    7     1       0.4498747177E-05       4    7    1         0.2622209379E-03      0.6431571912E-03

    ------------------------------------------------
       NWT REQUIRED            6 OUTER ITERATIONS 
       AND A TOTAL OF         11 INNER ITERATIONS.
    ------------------------------------------------

 NO OUTPUT CONTROL FOR STRESS PERIOD   10   TIME STEP    3
 
 SOLVING FOR HEAD 
                                                   Max.-Head-Change                         Max.-Flux-Residual
  Residual-Control   Outer-Iter.   Inner-Iter.     Column Row Layer    Maximum-Head-Change  Column Row Layer    Maximum-Flux-Residual          L2-NORM 
          0                 1           2             5    6     1       0.5290574924E-01       5    6    1         0.2858989969E+01      0.7310210798E+01
          0                 2           2             5    6     1      -0.5157948535E-02       5    6    1        -0.2865395001E+00      0.7342076813E+00
          0                 3           2             4    7     1      -0.3449835319E-01       4    7    1        -0.1851556660E+01      0.4552539880E+01
          0                 4           2             4    7     1       0.3623251985E-01       4    7    1         0.1998968367E+01      0.4896435770E+01
          0                 5           2             4    7     1      -0.1441912840E-02       5    8    1        -0.8178756786E-01      0.2003499470E+00
          0                 6           1             4    7     1       0.1779259786E-04       5    8    1         0.1037588146E-02      0.2543972131E-02

    ------------------------------------------------
       NWT REQUIRED            6 OUTER ITERATIONS 
       AND A TOTAL OF         11 INNER ITERATIONS.
    ------------------------------------------------

 NO OUTPUT CONTROL FOR STRESS PERIOD   10   TIME STEP    4
 
 SOLVING FOR HEAD 
                                                   Max.-Head-Change                         Max.-Flux-Residual
  Residual-Control   Outer-Iter.   Inner-Iter.     Column Row Layer    Maximum-Head-Change  Column Row Layer    Maximum-Flux-Residual          L2-NORM 
          0                 1           2             5    6     1       0.5091876301E-01       5    6    1         0.2749598714E+01      0.7096088734E+01
          0                 2           2             5    6     1      -0.4952968197E-02       5    6    1        -0.2749571746E+00      0.7114171987E+00
          0                 3           2             4    7     1      -0.3452443261E-01       4    7    1        -0.1852940999E+01      0.4556980433E+01
          0                 4           2             4    7     1       0.3624598956E-01       4    7    1         0.1999709976E+01      0.4898326248E+01
          0                 5           2             4    7     1      -0.1442460154E-02       5    8    1        -0.8182067548E-01      0.2004288275E+00
          0                 6           1             4    7     1       0.1779935197E-04       5    8    1         0.1038007918E-02      0.2544961521E-02

    ------------------------------------------------
       NWT REQUIRED            6 OUTER ITERATIONS 
       AND A TOTAL OF         11 INNER ITERATIONS.
    ------------------------------------------------

 NO OUTPUT CONTROL FOR STRESS PERIOD   10   TIME STEP    5
 
 SOLVING FOR HEAD 
                                                   Max.-Head-Change                         Max.-Flux-Residual
  Residual-Control   Outer-Iter.   Inner-Iter.     Column Row Layer    Maximum-Head-Change  Column Row Layer    Maximum-Flux-Residual          L2-NORM 
          0                 1           2             5    6     1       0.4904187862E-01       5    6    1         0.2646337205E+01      0.6893043292E+01
          0                 2           2             5    6     1      -0.4770401424E-02       5    6    1        -0.2646312234E+00      0.6911647344E+00
          0                 3           2             4    7     1      -0.3452593083E-01       4    7    1        -0.1853007348E+01      0.4558111079E+01
          0                 4           2             4    7     1       0.3624609109E-01       4    7    1         0.1999714311E+01      0.4898405106E+01
          0                 5           2             4    7     1      -0.1442461391E-02       5    8    1        -0.8182263814E-01      0.2004316778E+00
          0                 6           1             4    7     1       0.1779936642E-04       5    8    1         0.1038032569E-02      0.2545005933E-02

    ------------------------------------------------
       NWT REQUIRED            6 OUTER ITERATIONS 
       AND A TOTAL OF         11 INNER ITERATIONS.
    ------------------------------------------------

 NO OUTPUT CONTROL FOR STRESS PERIOD   10   TIME STEP    6
 
 SOLVING FOR HEAD 
                                                   Max.-Head-Change                         Max.-Flux-Residual
  Residual-Control   Outer-Iter.   Inner-Iter.     Column Row Layer    Maximum-Head-Change  Column Row Layer    Maximum-Flux-Residual          L2-NORM 
          0                 1           2             5    7     1       0.4792940267E-01       5    6    1         0.2548784344E+01      0.6700299798E+01
          0                 2           2             5    7     1      -0.4662208771E-02       5    6    1        -0.2548761210E+00      0.6719423151E+00
          0                 3           2             4    7     1      -0.3452765194E-01       4    7    1        -0.1853086869E+01      0.4559198527E+01
          0                 4           2             4    7     1       0.3624619785E-01       4    7    1         0.1999719170E+01      0.4898479865E+01
          0                 5           2             4    7     1      -0.1442460033E-02       5    8    1        -0.8182429798E-01      0.2004339275E+00
          0                 6           1             4    7     1       0.1779935007E-04       5    8    1         0.1038053426E-02      0.2545031250E-02

    ------------------------------------------------
       NWT REQUIRED            6 OUTER ITERATIONS 
       AND A TOTAL OF         11 INNER ITERATIONS.
    ------------------------------------------------

 NO OUTPUT CONTROL FOR STRESS PERIOD   10   TIME STEP    7
 
 SOLVING FOR HEAD 
                                                   Max.-Head-Change                         Max.-Flux-Residual
  Residual-Control   Outer-Iter.   Inner-Iter.     Column Row Layer    Maximum-Head-Change  Column Row Layer    Maximum-Flux-Residual          L2-NORM 
          0                 1           2             5    7     1       0.4693970510E-01       5    7    1         0.2490956174E+01      0.6517133102E+01
          0                 2           2             5    7     1      -0.4565941569E-02       5    7    1        -0.2490948460E+00      0.6536782915E+00
          0                 3           2             4    7     1      -0.3452958487E-01       4    7    1        -0.1853178896E+01      0.4560245393E+01
          0                 4           2             4    7     1       0.3624632371E-01       5    8    1         0.1999743499E+01      0.4898552761E+01
          0                 5           2             4    7     1      -0.1442462238E-02       5    8    1        -0.8182601604E-01      0.2004365050E+00
          0                 6           1             4    7     1       0.1779937729E-04       5    8    1         0.1038075001E-02      0.2545087734E-02

    ------------------------------------------------
       NWT REQUIRED            6 OUTER ITERATIONS 
       AND A TOTAL OF         11 INNER ITERATIONS.
    ------------------------------------------------

 NO OUTPUT CONTROL FOR STRESS PERIOD   10   TIME STEP    8
 
 SOLVING FOR HEAD 
                                                   Max.-Head-Change                         Max.-Flux-Residual
  Residual-Control   Outer-Iter.   Inner-Iter.     Column Row Layer    Maximum-Head-Change  Column Row Layer    Maximum-Flux-Residual          L2-NORM 
          0                 1           2             5    7     1       0.4596933804E-01       5    7    1         0.2439518500E+01      0.6342880898E+01
          0                 2           2             5    7     1      -0.4471554272E-02       5    7    1        -0.2439512791E+00      0.6363055199E+00
          0                 3           2             4    7     1      -0.3453170595E-01       5    8    1        -0.1853688434E+01      0.4561253681E+01
          0                 4           2             4    7     1       0.3624645786E-01       5    8    1         0.1999786937E+01      0.4898622622E+01
          0                 5           2             4    7     1      -0.1442464773E-02       5    8    1        -0.8182761922E-01      0.2004389605E+00
          0                 6           1             4    7     1       0.1779940876E-04       5    8    1         0.1038095156E-02      0.2545096492E-02

    ------------------------------------------------
       NWT REQUIRED            6 OUTER ITERATIONS 
       AND A TOTAL OF         11 INNER ITERATIONS.
    ------------------------------------------------

 NO OUTPUT CONTROL FOR STRESS PERIOD   10   TIME STEP    9
 
 SOLVING FOR HEAD 
                                                   Max.-Head-Change                         Max.-Flux-Residual
  Residual-Control   Outer-Iter.   Inner-Iter.     Column Row Layer    Maximum-Head-Change  Column Row Layer    Maximum-Flux-Residual          L2-NORM 
          0                 1           2             4    7     1       0.4528854565E-01       5    7    1         0.2389091283E+01      0.6176944649E+01
          0                 2           2             4    7     1      -0.4405341006E-02       5    7    1        -0.2389087324E+00      0.6197645950E+00
          0                 3           2             4    7     1      -0.3453399874E-01       5    8    1        -0.1854282503E+01      0.4562224780E+01
          0                 4           2             4    7     1       0.3624659865E-01       5    8    1         0.1999827705E+01      0.4898689457E+01
          0                 5           2             4    7     1      -0.1442464770E-02       5    8    1        -0.8182895516E-01      0.2004408987E+00
          0                 6           1             4    7     1       0.1779940876E-04       5    8    1         0.1038111935E-02      0.2545120020E-02

    ------------------------------------------------
       NWT REQUIRED            6 OUTER ITERATIONS 
       AND A TOTAL OF         11 INNER ITERATIONS.
    ------------------------------------------------

 NO OUTPUT CONTROL FOR STRESS PERIOD   10   TIME STEP   10
 
 SOLVING FOR HEAD 
                                                   Max.-Head-Change                         Max.-Flux-Residual
  Residual-Control   Outer-Iter.   Inner-Iter.     Column Row Layer    Maximum-Head-Change  Column Row Layer    Maximum-Flux-Residual          L2-NORM 
          0                 1           2             4    7     1       0.4492700425E-01       4    7    1         0.2353106743E+01      0.6018746689E+01
          0                 2           2             4    7     1      -0.4370175652E-02       4    7    1        -0.2353109307E+00      0.6039976795E+00
          0                 3           2             4    7     1      -0.3453644842E-01       5    8    1        -0.1854842901E+01      0.4563161215E+01
          0                 4           2             4    7     1       0.3624674811E-01       5    8    1         0.1999866132E+01      0.4898753836E+01
          0                 5           2             4    7     1      -0.1442465112E-02       5    8    1        -0.8183019621E-01      0.2004427422E+00
          0                 6           1             4    7     1       0.1779941280E-04       5    8    1         0.1038127496E-02      0.2545149213E-02

    ------------------------------------------------
       NWT REQUIRED            6 OUTER ITERATIONS 
       AND A TOTAL OF         11 INNER ITERATIONS.
    ------------------------------------------------

 NO OUTPUT CONTROL FOR STRESS PERIOD   10   TIME STEP   11
 
 SOLVING FOR HEAD 
                                                   Max.-Head-Change                         Max.-Flux-Residual
  Residual-Control   Outer-Iter.   Inner-Iter.     Column Row Layer    Maximum-Head-Change  Column Row Layer    Maximum-Flux-Residual          L2-NORM 
          0                 1           2             4    7     1       0.4454457957E-01       4    7    1         0.2334324849E+01      0.5867790566E+01
          0                 2           2             4    7     1      -0.4332978625E-02       4    7    1        -0.2334329054E+00      0.5889551256E+00
          0                 3           2             4    7     1      -0.3453903843E-01       5    8    1        -0.1855371892E+01      0.4564063950E+01
          0                 4           2             4    7     1       0.3624690817E-01       5    8    1         0.1999902536E+01      0.4898816228E+01
          0                 5           2             4    7     1      -0.1442468678E-02       5    8    1        -0.8183151421E-01      0.2004448998E+00
          0                 6           1             4    7     1       0.1779945682E-04       5    8    1         0.1038144062E-02      0.2545179709E-02

    ------------------------------------------------
       NWT REQUIRED            6 OUTER ITERATIONS 
       AND A TOTAL OF         11 INNER ITERATIONS.
    ------------------------------------------------

 NO OUTPUT CONTROL FOR STRESS PERIOD   10   TIME STEP   12
 
 SOLVING FOR HEAD 
                                                   Max.-Head-Change                         Max.-Flux-Residual
  Residual-Control   Outer-Iter.   Inner-Iter.     Column Row Layer    Maximum-Head-Change  Column Row Layer    Maximum-Flux-Residual          L2-NORM 
          0                 1           2             4    7     1       0.4414344412E-01       4    7    1         0.2314460176E+01      0.5723601255E+01
          0                 2           2             4    7     1      -0.4293961276E-02       4    7    1        -0.2314465839E+00      0.5745895159E+00
          0                 3           2             4    7     1      -0.3454175412E-01       5    8    1        -0.1855871673E+01      0.4564934749E+01
          0                 4           2             4    7     1       0.3624707509E-01       5    8    1         0.1999936910E+01      0.4898876358E+01
          0                 5           2             4    7     1      -0.1442472518E-02       5    8    1        -0.8183274988E-01      0.2004469487E+00
          0                 6           1             4    7     1       0.1779950387E-04       5    8    1         0.1038159580E-02      0.2545193767E-02

    ------------------------------------------------
       NWT REQUIRED            6 OUTER ITERATIONS 
       AND A TOTAL OF         11 INNER ITERATIONS.
    ------------------------------------------------

 NO OUTPUT CONTROL FOR STRESS PERIOD   10   TIME STEP   13
 
 SOLVING FOR HEAD 
                                                   Max.-Head-Change                         Max.-Flux-Residual
  Residual-Control   Outer-Iter.   Inner-Iter.     Column Row Layer    Maximum-Head-Change  Column Row Layer    Maximum-Flux-Residual          L2-NORM 
          0                 1           2             4    7     1       0.4372536161E-01       4    7    1         0.2293610741E+01      0.5585741908E+01
          0                 2           2             4    7     1      -0.4253295187E-02       4    7    1        -0.2293617694E+00      0.5608571049E+00
          0                 3           2             4    7     1      -0.3454458583E-01       5    8    1        -0.1856344278E+01      0.4565775607E+01
          0                 4           2             4    7     1       0.3624725051E-01       5    8    1         0.1999969514E+01      0.4898934658E+01
          0                 5           2             4    7     1      -0.1442476696E-02       5    8    1        -0.8183391385E-01      0.2004489299E+00
          0                 6           1             4    7     1       0.1779955573E-04       5    8    1         0.1038174209E-02      0.2545228741E-02

    ------------------------------------------------
       NWT REQUIRED            6 OUTER ITERATIONS 
       AND A TOTAL OF         11 INNER ITERATIONS.
    ------------------------------------------------

 NO OUTPUT CONTROL FOR STRESS PERIOD   10   TIME STEP   14
 
 SOLVING FOR HEAD 
                                                   Max.-Head-Change                         Max.-Flux-Residual
  Residual-Control   Outer-Iter.   Inner-Iter.     Column Row Layer    Maximum-Head-Change  Column Row Layer    Maximum-Flux-Residual          L2-NORM 
          0                 1           2             4    7     1       0.4329251256E-01       4    7    1         0.2271897240E+01      0.5453811917E+01
          0                 2           2             4    7     1      -0.4211192485E-02       4    7    1        -0.2271905328E+00      0.5477178636E+00
          0                 3           2             4    7     1      -0.3454751221E-01       5    8    1        -0.1856791229E+01      0.4566586826E+01
          0                 4           2             4    7     1       0.3624742376E-01       5    8    1         0.1999999937E+01      0.4898989899E+01
          0                 5           2             4    7     1      -0.1442477986E-02       5    8    1        -0.8183483028E-01      0.2004503932E+00
          0                 6           1             4    7     1       0.1779957152E-04       5    8    1         0.1038185704E-02      0.2545234502E-02

    ------------------------------------------------
       NWT REQUIRED            6 OUTER ITERATIONS 
       AND A TOTAL OF         11 INNER ITERATIONS.
    ------------------------------------------------

 NO OUTPUT CONTROL FOR STRESS PERIOD   10   TIME STEP   15
 
 SOLVING FOR HEAD 
                                                   Max.-Head-Change                         Max.-Flux-Residual
  Residual-Control   Outer-Iter.   Inner-Iter.     Column Row Layer    Maximum-Head-Change  Column Row Layer    Maximum-Flux-Residual          L2-NORM 
          0                 1           2             4    7     1       0.4284639662E-01       4    7    1         0.2249403477E+01      0.5327435944E+01
          0                 2           2             4    7     1      -0.4167799066E-02       4    7    1        -0.2249412560E+00      0.5351343828E+00
          0                 3           2             4    7     1      -0.3455053204E-01       5    8    1        -0.1857214624E+01      0.4567370849E+01
          0                 4           2             4    7     1       0.3624760639E-01       5    8    1         0.2000028961E+01      0.4899043814E+01
          0                 5           2             4    7     1      -0.1442479648E-02       5    8    1        -0.8183569006E-01      0.2004518164E+00
          0                 6           1             4    7     1       0.1779959247E-04       5    8    1         0.1038196478E-02      0.2545260505E-02

    ------------------------------------------------
       NWT REQUIRED            6 OUTER ITERATIONS 
       AND A TOTAL OF         11 INNER ITERATIONS.
    ------------------------------------------------

 NO OUTPUT CONTROL FOR STRESS PERIOD   10   TIME STEP   16
 
 SOLVING FOR HEAD 
                                                   Max.-Head-Change                         Max.-Flux-Residual
  Residual-Control   Outer-Iter.   Inner-Iter.     Column Row Layer    Maximum-Head-Change  Column Row Layer    Maximum-Flux-Residual          L2-NORM 
          0                 1           2             4    7     1       0.4238867662E-01       4    7    1         0.2226221831E+01      0.5206275190E+01
          0                 2           2             4    7     1      -0.4123276695E-02       4    7    1        -0.2226231781E+00      0.5230722847E+00
          0                 3           2             4    7     1      -0.3455362967E-01       5    8    1        -0.1857615780E+01      0.4568128699E+01
          0                 4           2             4    7     1       0.3624779890E-01       5    8    1         0.2000056757E+01      0.4899096632E+01
          0                 5           2             4    7     1      -0.1442487309E-02       5    8    1        -0.8183681806E-01      0.2004539627E+00
          0                 6           1             4    7     1       0.1779968668E-04       5    8    1         0.1038210673E-02      0.2545288419E-02

    ------------------------------------------------
       NWT REQUIRED            6 OUTER ITERATIONS 
       AND A TOTAL OF         11 INNER ITERATIONS.
    ------------------------------------------------

 NO OUTPUT CONTROL FOR STRESS PERIOD   10   TIME STEP   17
 
 SOLVING FOR HEAD 
                                                   Max.-Head-Change                         Max.-Flux-Residual
  Residual-Control   Outer-Iter.   Inner-Iter.     Column Row Layer    Maximum-Head-Change  Column Row Layer    Maximum-Flux-Residual          L2-NORM 
          0                 1           2             4    7     1       0.4192090314E-01       4    7    1         0.2202438520E+01      0.5090016369E+01
          0                 2           2             4    7     1      -0.4077776219E-02       4    7    1        -0.2202449218E+00      0.5115008095E+00
          0                 3           2             4    7     1      -0.3455679022E-01       5    8    1        -0.1857995950E+01      0.4568860735E+01
          0                 4           2             4    7     1       0.3624798453E-01       5    8    1         0.2000082537E+01      0.4899146270E+01
          0                 5           2             4    7     1      -0.1442489092E-02       5    8    1        -0.8183754627E-01      0.2004552008E+00
          0                 6           1             4    7     1       0.1779970874E-04       5    8    1         0.1038219791E-02      0.2545308326E-02

    ------------------------------------------------
       NWT REQUIRED            6 OUTER ITERATIONS 
       AND A TOTAL OF         11 INNER ITERATIONS.
    ------------------------------------------------

 NO OUTPUT CONTROL FOR STRESS PERIOD   10   TIME STEP   18
 
 SOLVING FOR HEAD 
                                                   Max.-Head-Change                         Max.-Flux-Residual
  Residual-Control   Outer-Iter.   Inner-Iter.     Column Row Layer    Maximum-Head-Change  Column Row Layer    Maximum-Flux-Residual          L2-NORM 
          0                 1           2             4    7     1       0.4144451341E-01       4    7    1         0.2178133939E+01      0.4978360913E+01
          0                 2           2             4    7     1      -0.4031437456E-02       4    7    1        -0.2178145279E+00      0.5003900839E+00
          0                 3           2             4    7     1      -0.3456001289E-01       5    8    1        -0.1858356936E+01      0.4569572901E+01
          0                 4           2             4    7     1       0.3624818062E-01       5    8    1         0.2000107381E+01      0.4899195497E+01
          0                 5           2             4    7     1      -0.1442494093E-02       5    8    1        -0.8183839555E-01      0.2004568094E+00
          0                 6           1             4    7     1       0.1779977024E-04       5    8    1         0.1038230470E-02      0.2545324506E-02

    ------------------------------------------------
       NWT REQUIRED            6 OUTER ITERATIONS 
       AND A TOTAL OF         11 INNER ITERATIONS.
    ------------------------------------------------

 NO OUTPUT CONTROL FOR STRESS PERIOD   10   TIME STEP   19
 
 SOLVING FOR HEAD 
                                                   Max.-Head-Change                         Max.-Flux-Residual
  Residual-Control   Outer-Iter.   Inner-Iter.     Column Row Layer    Maximum-Head-Change  Column Row Layer    Maximum-Flux-Residual          L2-NORM 
          0                 1           2             4    7     1       0.4096098020E-01       4    7    1         0.2153389922E+01      0.4871052067E+01
          0                 2           2             4    7     1      -0.3984403683E-02       4    7    1        -0.2153401807E+00      0.4897141479E+00
          0                 3           2             4    7     1      -0.3456327888E-01       5    8    1        -0.1858699487E+01      0.4570253719E+01
          0                 4           2             4    7     1       0.3624837159E-01       5    8    1         0.2000130546E+01      0.4899241537E+01
          0                 5           2             4    7     1      -0.1442496087E-02       5    8    1        -0.8183901767E-01      0.2004579208E+00
          0                 6           1             4    7     1       0.1779979522E-04       5    8    1         0.1038238269E-02      0.2545350454E-02

    ------------------------------------------------
       NWT REQUIRED            6 OUTER ITERATIONS 
       AND A TOTAL OF         11 INNER ITERATIONS.
    ------------------------------------------------

 NO OUTPUT CONTROL FOR STRESS PERIOD   10   TIME STEP   20
 
 SOLVING FOR HEAD 
                                                   Max.-Head-Change                         Max.-Flux-Residual
  Residual-Control   Outer-Iter.   Inner-Iter.     Column Row Layer    Maximum-Head-Change  Column Row Layer    Maximum-Flux-Residual          L2-NORM 
          0                 1           2             4    7     1       0.4047126703E-01       4    7    1         0.2128260881E+01      0.4767831914E+01
          0                 2           2             4    7     1      -0.3936768635E-02       4    7    1        -0.2128273222E+00      0.4794473547E+00
          0                 3           2             4    7     1      -0.3456659058E-01       5    8    1        -0.1859025214E+01      0.4570917003E+01
          0                 4           2             4    7     1       0.3624857208E-01       5    8    1         0.2000152939E+01      0.4899287296E+01
          0                 5           2             4    7     1      -0.1442501264E-02       5    8    1        -0.8183976753E-01      0.2004593743E+00
          0                 6           1             4    7     1       0.1779985884E-04       5    8    1         0.1038247679E-02      0.2545349398E-02

    ------------------------------------------------
       NWT REQUIRED            6 OUTER ITERATIONS 
       AND A TOTAL OF         11 INNER ITERATIONS.
    ------------------------------------------------

 NO OUTPUT CONTROL FOR STRESS PERIOD   10   TIME STEP   21
 
 SOLVING FOR HEAD 
                                                   Max.-Head-Change                         Max.-Flux-Residual
  Residual-Control   Outer-Iter.   Inner-Iter.     Column Row Layer    Maximum-Head-Change  Column Row Layer    Maximum-Flux-Residual          L2-NORM 
          0                 1           2             4    7     1       0.3997666490E-01       4    7    1         0.2102818724E+01      0.4668465729E+01
          0                 2           2             4    7     1      -0.3888657905E-02       4    7    1        -0.2102831441E+00      0.4695661711E+00
          0                 3           2             4    7     1      -0.3456993263E-01       5    8    1        -0.1859334866E+01      0.4571558924E+01
          0                 4           2             4    7     1       0.3624877178E-01       5    8    1         0.2000174095E+01      0.4899331262E+01
          0                 5           2             4    7     1      -0.1442506409E-02       5    8    1        -0.8184046723E-01      0.2004607799E+00
          0                 6           1             4    7     1       0.1779992258E-04       5    8    1         0.1038256473E-02      0.2545376263E-02

    ------------------------------------------------
       NWT REQUIRED            6 OUTER ITERATIONS 
       AND A TOTAL OF         11 INNER ITERATIONS.
    ------------------------------------------------

 NO OUTPUT CONTROL FOR STRESS PERIOD   10   TIME STEP   22
 
 SOLVING FOR HEAD 
                                                   Max.-Head-Change                         Max.-Flux-Residual
  Residual-Control   Outer-Iter.   Inner-Iter.     Column Row Layer    Maximum-Head-Change  Column Row Layer    Maximum-Flux-Residual          L2-NORM 
          0                 1           2             4    7     1       0.3947810341E-01       4    7    1         0.2077115752E+01      0.4572743052E+01
          0                 2           2             4    7     1      -0.3840161940E-02       4    7    1        -0.2077128772E+00      0.4600380669E+00
          0                 3           2             4    7     1      -0.3457330100E-01       5    8    1        -0.1859629533E+01      0.4572180556E+01
          0                 4           2             4    7     1       0.3624896975E-01       5    8    1         0.2000194050E+01      0.4899373400E+01
          0                 5           2             4    7     1      -0.1442508682E-02       5    8    1        -0.8184095917E-01      0.2004616972E+00
          0                 6           1             4    7     1       0.1779995036E-04       5    8    1         0.1038262624E-02      0.2545375783E-02

    ------------------------------------------------
       NWT REQUIRED            6 OUTER ITERATIONS 
       AND A TOTAL OF         11 INNER ITERATIONS.
    ------------------------------------------------

 NO OUTPUT CONTROL FOR STRESS PERIOD   10   TIME STEP   23
 
 SOLVING FOR HEAD 
                                                   Max.-Head-Change                         Max.-Flux-Residual
  Residual-Control   Outer-Iter.   Inner-Iter.     Column Row Layer    Maximum-Head-Change  Column Row Layer    Maximum-Flux-Residual          L2-NORM 
          0                 1           2             4    7     1       0.3897670140E-01       4    7    1         0.2051214800E+01      0.4480469273E+01
          0                 2           2             4    7     1      -0.3791389552E-02       4    7    1        -0.2051228058E+00      0.4508782061E+00
          0                 3           2             4    7     1      -0.3457668815E-01       5    8    1        -0.1859910114E+01      0.4572782941E+01
          0                 4           2             4    7     1       0.3624916845E-01       5    8    1         0.2000213025E+01      0.4899414192E+01
          0                 5           2             4    7     1      -0.1442510985E-02       5    8    1        -0.8184141143E-01      0.2004625798E+00
          0                 6           1             4    7     1       0.1779997904E-04       5    8    1         0.1038268274E-02      0.2545389538E-02

    ------------------------------------------------
       NWT REQUIRED            6 OUTER ITERATIONS 
       AND A TOTAL OF         11 INNER ITERATIONS.
    ------------------------------------------------

 NO OUTPUT CONTROL FOR STRESS PERIOD   10   TIME STEP   24
 
 SOLVING FOR HEAD 
                                                   Max.-Head-Change                         Max.-Flux-Residual
  Residual-Control   Outer-Iter.   Inner-Iter.     Column Row Layer    Maximum-Head-Change  Column Row Layer    Maximum-Flux-Residual          L2-NORM 
          0                 1           2             4    7     1       0.3847336459E-01       4    7    1         0.2025166561E+01      0.4391459529E+01
          0                 2           2             4    7     1      -0.3742428882E-02       4    7    1        -0.2025179999E+00      0.4420336873E+00
          0                 3           2             4    7     1      -0.3458008798E-01       5    8    1        -0.1860177501E+01      0.4573366657E+01
          0                 4           2             4    7     1       0.3624937042E-01       5    8    1         0.2000231242E+01      0.4899454054E+01
          0                 5           2             4    7     1      -0.1442516220E-02       5    8    1        -0.8184199192E-01      0.2004638097E+00
          0                 6           1             4    7     1       0.1780004322E-04       5    8    1         0.1038275562E-02      0.2545405340E-02

    ------------------------------------------------
       NWT REQUIRED            6 OUTER ITERATIONS 
       AND A TOTAL OF         11 INNER ITERATIONS.
    ------------------------------------------------

 NO OUTPUT CONTROL FOR STRESS PERIOD   10   TIME STEP   25
 
 SOLVING FOR HEAD 
                                                   Max.-Head-Change                         Max.-Flux-Residual
  Residual-Control   Outer-Iter.   Inner-Iter.     Column Row Layer    Maximum-Head-Change  Column Row Layer    Maximum-Flux-Residual          L2-NORM 
          0                 1           2             4    7     1       0.3796879332E-01       4    7    1         0.1999010675E+01      0.4305533805E+01
          0                 2           2             4    7     1      -0.3693348055E-02       4    7    1        -0.1999024239E+00      0.4334977515E+00
          0                 3           2             4    7     1      -0.3458349578E-01       5    8    1        -0.1860432518E+01      0.4573932806E+01
          0                 4           2             4    7     1       0.3624957249E-01       5    8    1         0.2000248599E+01      0.4899492670E+01
          0                 5           2             4    7     1      -0.1442521460E-02       5    8    1        -0.8184253752E-01      0.2004649862E+00
          0                 6           1             4    7     1       0.1780010808E-04       5    8    1         0.1038282435E-02      0.2545420861E-02

    ------------------------------------------------
       NWT REQUIRED            6 OUTER ITERATIONS 
       AND A TOTAL OF         11 INNER ITERATIONS.
    ------------------------------------------------

 NO OUTPUT CONTROL FOR STRESS PERIOD   10   TIME STEP   26
 
 SOLVING FOR HEAD 
                                                   Max.-Head-Change                         Max.-Flux-Residual
  Residual-Control   Outer-Iter.   Inner-Iter.     Column Row Layer    Maximum-Head-Change  Column Row Layer    Maximum-Flux-Residual          L2-NORM 
          0                 1           2             4    7     1       0.3746375841E-01       4    7    1         0.1972790774E+01      0.4222527326E+01
          0                 2           2             4    7     1      -0.3644222056E-02       4    7    1        -0.1972804416E+00      0.4252539339E+00
          0                 3           2             4    7     1      -0.3458690858E-01       5    8    1        -0.1860676000E+01      0.4574482105E+01
          0                 4           2             4    7     1       0.3624977670E-01       5    8    1         0.2000265272E+01      0.4899530375E+01
          0                 5           2             4    7     1      -0.1442526784E-02       5    8    1        -0.8184305546E-01      0.2004661217E+00
          0                 6           1             4    7     1       0.1780017383E-04       5    8    1         0.1038288911E-02      0.2545437819E-02

    ------------------------------------------------
       NWT REQUIRED            6 OUTER ITERATIONS 
       AND A TOTAL OF         11 INNER ITERATIONS.
    ------------------------------------------------

 NO OUTPUT CONTROL FOR STRESS PERIOD   10   TIME STEP   27
 
 SOLVING FOR HEAD 
                                                   Max.-Head-Change                         Max.-Flux-Residual
  Residual-Control   Outer-Iter.   Inner-Iter.     Column Row Layer    Maximum-Head-Change  Column Row Layer    Maximum-Flux-Residual          L2-NORM 
          0                 1           2             4    7     1       0.3695910367E-01       4    7    1         0.1946554144E+01      0.4142296069E+01
          0                 2           2             4    7     1      -0.3595132974E-02       4    7    1        -0.1946567822E+00      0.4172883160E+00
          0                 3           2             4    7     1      -0.3459031403E-01       5    8    1        -0.1860908249E+01      0.4575014250E+01
          0                 4           2             4    7     1       0.3624997289E-01       5    8    1         0.2000280767E+01      0.4899566017E+01
          0                 5           2             4    7     1      -0.1442528987E-02       5    8    1        -0.8184336652E-01      0.2004668576E+00
          0                 6           1             4    7     1       0.1780020128E-04       5    8    1         0.1038292816E-02      0.2545436224E-02

    ------------------------------------------------
       NWT REQUIRED            6 OUTER ITERATIONS 
       AND A TOTAL OF         11 INNER ITERATIONS.
    ------------------------------------------------

 NO OUTPUT CONTROL FOR STRESS PERIOD   10   TIME STEP   28
 
 SOLVING FOR HEAD 
                                                   Max.-Head-Change                         Max.-Flux-Residual
  Residual-Control   Outer-Iter.   Inner-Iter.     Column Row Layer    Maximum-Head-Change  Column Row Layer    Maximum-Flux-Residual          L2-NORM 
          0                 1           2             4    7     1       0.3645547040E-01       4    7    1         0.1920337217E+01      0.4064701993E+01
          0                 2           2             4    7     1      -0.3546143196E-02       4    7    1        -0.1920350893E+00      0.4095864621E+00
          0                 3           2             4    7     1      -0.3459371671E-01       5    8    1        -0.1861130468E+01      0.4575531566E+01
          0                 4           2             4    7     1       0.3625017296E-01       5    8    1         0.2000295803E+01      0.4899601004E+01
          0                 5           2             4    7     1      -0.1442531344E-02       5    8    1        -0.8184365905E-01      0.2004674301E+00
          0                 6           1             4    7     1       0.1780023018E-04       5    8    1         0.1038296450E-02      0.2545448331E-02

    ------------------------------------------------
       NWT REQUIRED            6 OUTER ITERATIONS 
       AND A TOTAL OF         11 INNER ITERATIONS.
    ------------------------------------------------

 NO OUTPUT CONTROL FOR STRESS PERIOD   10   TIME STEP   29
 
 SOLVING FOR HEAD 
                                                   Max.-Head-Change                         Max.-Flux-Residual
  Residual-Control   Outer-Iter.   Inner-Iter.     Column Row Layer    Maximum-Head-Change  Column Row Layer    Maximum-Flux-Residual          L2-NORM 
          0                 1           2             4    7     1       0.3595331415E-01       4    7    1         0.1894165919E+01      0.3989610880E+01
          0                 2           2             4    7     1      -0.3497297043E-02       4    7    1        -0.1894179560E+00      0.4021352742E+00
          0                 3           2             4    7     1      -0.3459710467E-01       5    8    1        -0.1861342692E+01      0.4576032970E+01
          0                 4           2             4    7     1       0.3625036748E-01       5    8    1         0.2000309906E+01      0.4899634375E+01
          0                 5           2             4    7     1      -0.1442533481E-02       5    8    1        -0.8184391360E-01      0.2004680006E+00
          0                 6           1             4    7     1       0.1780025639E-04       5    8    1         0.1038299614E-02      0.2545447606E-02

    ------------------------------------------------
       NWT REQUIRED            6 OUTER ITERATIONS 
       AND A TOTAL OF         11 INNER ITERATIONS.
    ------------------------------------------------

 NO OUTPUT CONTROL FOR STRESS PERIOD   10   TIME STEP   30



 STREAM LISTING     PERIOD     10   STEP       30

 LAYER ROW COL. STREAM  RCH.  FLOW INTO     FLOW TO   FLOW OUT OF   OVRLND.     DIRECT     STREAM       STREAM     STREAM     STREAM   STREAMBED  STREAMBED
                SEG.NO.  NO.  STRM. RCH.    AQUIFER    STRM. RCH.    RUNOFF     PRECIP       ET          HEAD       DEPTH      WIDTH   CONDCTNC.   GRADIENT

   1    1    1     1     1    1.7625E+01  2.0521E-01   1.7420E+01  0.000E+00  0.000E+00  0.000E+00  1.09411E+03  1.059E+00  1.124E+01  5.056E-02  1.353E+00
   1    2    2     1     2    1.7420E+01  3.1649E-01   1.7103E+01  0.000E+00  0.000E+00  0.000E+00  1.08911E+03  1.054E+00  1.115E+01  7.807E-02  1.351E+00
   1    3    3     1     3    1.7103E+01  2.6863E-01   1.6835E+01  0.000E+00  0.000E+00  0.000E+00  1.08347E+03  1.049E+00  1.106E+01  6.635E-02  1.350E+00
   1    3    4     1     4    1.6835E+01  2.4632E-01   1.6588E+01  0.000E+00  0.000E+00  0.000E+00  1.07845E+03  1.044E+00  1.097E+01  6.091E-02  1.348E+00
   1    4    5     2     1    1.4588E+01  3.0175E-01   1.4286E+01  0.000E+00  0.000E+00  0.000E+00  1.07280E+03  8.686E-01  1.200E+01  7.800E-02  1.290E+00
   1    5    6     2     2    1.4286E+01  2.3154E-01   1.4055E+01  0.000E+00  0.000E+00  0.000E+00  1.06737E+03  8.590E-01  1.200E+01  6.000E-02  1.286E+00
   1    6    6     2     3    1.4055E+01  2.3103E-01   1.3824E+01  0.000E+00  0.000E+00  0.000E+00  1.06264E+03  8.505E-01  1.200E+01  6.000E-02  1.284E+00
   1    7    6     2     4    1.3824E+01  2.3052E-01   1.3593E+01  0.000E+00  0.000E+00  0.000E+00  1.05792E+03  8.421E-01  1.200E+01  6.000E-02  1.281E+00
   1    8    6     2     5    1.3593E+01  2.3001E-01   1.3363E+01  0.000E+00  0.000E+00  0.000E+00  1.05319E+03  8.335E-01  1.200E+01  6.000E-02  1.278E+00
   1    3    5     3     1    2.0000E+00  2.8252E-01   1.7175E+00  0.000E+00  0.000E+00  0.000E+00  1.07555E+03  1.909E+00  9.636E+00  7.227E-02  1.955E+00
   1    3    6     3     2    1.7175E+00  2.4905E-01   1.4684E+00  0.000E+00  0.000E+00  0.000E+00  1.07264E+03  1.727E+00  8.909E+00  6.682E-02  1.864E+00
   1    3    7     3     3    1.4684E+00  1.9718E-01   1.2712E+00  0.000E+00  0.000E+00  0.000E+00  1.06987E+03  1.555E+00  8.218E+00  5.547E-02  1.777E+00
   1    4    8     3     4    1.2712E+00  2.2567E-01   1.0456E+00  0.000E+00  0.000E+00  0.000E+00  1.06682E+03  1.364E+00  7.455E+00  6.709E-02  1.682E+00
   1    5    8     3     5    1.0456E+00  1.5790E-01   8.8768E-01  0.000E+00  0.000E+00  0.000E+00  1.06362E+03  1.164E+00  6.655E+00  4.991E-02  1.582E+00
   1    6    8     3     6    8.8768E-01  5.5980E-02   8.3170E-01  0.000E+00  0.000E+00  0.000E+00  1.06158E+03  1.036E+00  6.145E+00  1.844E-02  1.518E+00
   1    5   10     4     1    1.0000E+01  9.0919E-02   9.9091E+00  0.000E+00  0.000E+00  0.000E+00  1.07836E+03  6.368E-01  1.000E+01  2.500E-02  1.212E+00
   1    5    9     4     2    9.9091E+00  1.8158E-01   9.7275E+00  0.000E+00  0.000E+00  0.000E+00  1.07154E+03  6.315E-01  1.000E+01  5.000E-02  1.211E+00
   1    6    8     4     3    9.7275E+00  1.2689E-01   9.6006E+00  0.000E+00  0.000E+00  0.000E+00  1.06381E+03  6.256E-01  1.000E+01  3.500E-02  1.209E+00
   1    6    8     5     1    1.0432E+01  2.2686E-01   1.0205E+01  0.000E+00  0.000E+00  0.000E+00  1.05868E+03  6.790E-01  1.542E+01  6.166E-02  1.226E+00
   1    7    7     5     2    1.0205E+01  2.7894E-01   9.9265E+00  0.000E+00  0.000E+00  0.000E+00  1.05417E+03  6.732E-01  1.519E+01  7.594E-02  1.224E+00
   1    8    7     5     3    9.9265E+00  1.9221E-01   9.7343E+00  0.000E+00  0.000E+00  0.000E+00  1.04992E+03  6.676E-01  1.497E+01  5.241E-02  1.223E+00
   1    8    6     5     4    9.7343E+00  1.3577E-01   9.5985E+00  0.000E+00  0.000E+00  0.000E+00  1.04691E+03  6.637E-01  1.482E+01  3.706E-02  1.221E+00
   1    9    6     6     1    1.1742E+01  2.2629E-01   1.1516E+01  0.000E+00  0.000E+00  0.000E+00  1.04350E+03  7.714E-01  1.200E+01  6.000E-02  1.257E+00
   1   10    7     6     2    1.1516E+01  2.2574E-01   1.1290E+01  0.000E+00  0.000E+00  0.000E+00  1.03894E+03  7.624E-01  1.200E+01  6.000E-02  1.254E+00
   1   11    7     6     3    1.1290E+01  2.2520E-01   1.1065E+01  0.000E+00  0.000E+00  0.000E+00  1.03439E+03  7.533E-01  1.200E+01  6.000E-02  1.251E+00
   1   12    7     6     4    1.1065E+01  2.2465E-01   1.0840E+01  0.000E+00  0.000E+00  0.000E+00  1.02984E+03  7.442E-01  1.200E+01  6.000E-02  1.248E+00
   1   13    7     6     5    1.0840E+01 -4.3242E-02   1.0883E+01  0.000E+00  0.000E+00  0.000E+00  1.02665E+03  7.405E-01  1.200E+01  2.400E-01 -6.006E-02
   1   14    9     7     1    1.5000E+02  1.3688E+00   1.4863E+02  0.000E+00  0.000E+00  0.000E+00  1.03987E+03  2.288E+00  5.529E+01  5.593E-01  8.158E-01
   1   13    8     7     2    1.4863E+02  1.9195E+00   1.4671E+02  0.000E+00  0.000E+00  0.000E+00  1.03478E+03  2.279E+00  5.526E+01  6.148E-01  1.041E+00
   1   13    7     7     3    1.4671E+02  1.5965E+00   1.4512E+02  0.000E+00  0.000E+00  0.000E+00  1.02969E+03  2.270E+00  5.521E+01  5.584E-01  9.530E-01
   1   13    6     8     1    1.5600E+02  9.5857E-01   1.5504E+02  0.000E+00  0.000E+00  0.000E+00  1.02473E+03  2.855E+00  4.140E+01  4.219E-01  7.574E-01
   1   13    5     8     2    1.5504E+02  2.1709E-01   1.5482E+02  0.000E+00  0.000E+00  0.000E+00  1.01848E+03  2.851E+00  4.134E+01  4.213E-01  1.718E-01
   1   13    4     8     3    1.5482E+02 -2.2856E+00   1.5711E+02  0.000E+00  0.000E+00  0.000E+00  1.01223E+03  2.858E+00  4.145E+01  4.223E+00 -1.804E-01
   1   13    3     8     4    1.5711E+02 -3.5626E+00   1.6067E+02  0.000E+00  0.000E+00  0.000E+00  1.00600E+03  2.878E+00  4.174E+01  4.253E+00 -2.792E-01
   1   13    2     8     5    1.6067E+02 -2.5515E+00   1.6322E+02  0.000E+00  0.000E+00  0.000E+00  9.99774E+02  2.899E+00  4.203E+01  4.284E+00 -1.985E-01
   1   13    1     8     6    1.6322E+02 -1.9667E+00   1.6519E+02  0.000E+00  0.000E+00  0.000E+00  9.94789E+02  2.914E+00  4.225E+01  2.583E+00 -2.538E-01
   1    8    6     9     1    1.1220E+01  0.0000E+00   1.1220E+01  0.000E+00  0.000E+00  0.000E+00  1.08118E+03  2.428E+00  4.000E+00  0.000E+00  1.809E+00
   1    8    5     9     2    1.1220E+01  0.0000E+00   1.1220E+01  0.000E+00  0.000E+00  0.000E+00  1.08068E+03  2.428E+00  4.000E+00  0.000E+00  1.809E+00





UNSATURATED ZONE PACKAGE VOLUMETRIC BUDGET FOR  TIME STEP    30 STRESS PERIOD   10
  ------------------------------------------------------------------------------



     CUMULATIVE VOLUMES      L**3       RATES FOR THIS TIME STEP      L**3/T
     ------------------                 ------------------------

           IN:                                      IN:
           ---                                      ---
        INFILTRATION =   425100526.5756          INFILTRATION =          12.0677

          OUT:                                     OUT:
          ----                                     ----
              UZF ET =   423840181.3722                UZF ET =          12.0675
        UZF RECHARGE =       73224.0000          UZF RECHARGE =       0.0000E+00

            IN - OUT =     1187121.2034              IN - OUT =       2.2459E-04

          STORAGE:                                 STORAGE:
          --------                                 --------
      STORAGE CHANGE =     1187124.2335        STORAGE CHANGE =       2.2489E-04

 PERCENT DISCREPANCY IS DIFFERENCE BETWEEN IN-OUT MINUS CHANGE IN STORAGE
 DIVIDED BY THE AVERAGE OF IN AND OUT TIMES 100

 PERCENT DISCREPANCY =          -0.00     PERCENT DISCREPANCY =          -0.00






1
  VOLUMETRIC BUDGET FOR AGRICULTURAL FIELDS AT  END OF TIME STEP   30, STRESS PERIOD  10
  ------------------------------------------------------------------------------

     CUMULATIVE VOLUMES      L**3       RATES FOR THIS TIME STEP      L**3/T
     ------------------                 ------------------------

           IN:                                      IN:
           ---                                      ---
           AG WELLS      =   178258384.0000             AG WELLS      =           0.0000
      DIVERSION SEGMENTS =   226725392.0000        DIVERSION SEGMENTS =          11.2200
           GW IRRIGATION =           0.0000             GW IRRIGATION =           0.0000
           SW IRRIGATION =           0.0000             SW IRRIGATION =           0.0000
        SYSTEM LOSSES GW =           0.0000          SYSTEM LOSSES GW =           0.0000
        SYSTEM LOSSES SW =           0.0000          SYSTEM LOSSES SW =           0.0000

                TOTAL IN =   404983776.0000                  TOTAL IN =          11.2200

          OUT:                                     OUT:
          ----                                     ----
           AG WELLS      =           0.0000             AG WELLS      =           0.0000
      DIVERSION SEGMENTS =           0.0000        DIVERSION SEGMENTS =           0.0000
           GW IRRIGATION =   178258384.0000             GW IRRIGATION =           0.0000
           SW IRRIGATION =   226729728.0000             SW IRRIGATION =          11.2202
        SYSTEM LOSSES GW =           0.0000          SYSTEM LOSSES GW =           0.0000
        SYSTEM LOSSES SW =           0.0000          SYSTEM LOSSES SW =           0.0000

               TOTAL OUT =   404988096.0000                 TOTAL OUT =          11.2202

                IN - OUT =       -4320.0000                  IN - OUT =      -2.2411E-04

     PERCENT DISCREPANCY =          -0.00         PERCENT DISCREPANCY =          -0.00



1
  VOLUMETRIC BUDGET FOR ENTIRE MODEL AT END OF TIME STEP   30, STRESS PERIOD  10
  ------------------------------------------------------------------------------

     CUMULATIVE VOLUMES      L**3       RATES FOR THIS TIME STEP      L**3/T
     ------------------                 ------------------------

           IN:                                      IN:
           ---                                      ---
             STORAGE     =   216810848.0000               STORAGE     =           8.0184
       CONSTANT HEAD     =           0.0000         CONSTANT HEAD     =           0.0000
     HEAD DEP BOUNDS     =     6839599.5000       HEAD DEP BOUNDS     =           0.2880
      STREAM LEAKAGE     =   280984992.0000        STREAM LEAKAGE     =          11.6253
        UZF RECHARGE     =       73223.9531          UZF RECHARGE     =           0.0000
               GW ET     =           0.0000                 GW ET     =           0.0000
     SURFACE LEAKAGE     =           0.0000       SURFACE LEAKAGE     =           0.0000
           AG WELLS      =           0.0000             AG WELLS      =           0.0000

                TOTAL IN =   504708672.0000                  TOTAL IN =          19.9317

          OUT:                                     OUT:
          ----                                     ----
             STORAGE     =    73393512.0000               STORAGE     =           9.2351
       CONSTANT HEAD     =           0.0000         CONSTANT HEAD     =           0.0000
     HEAD DEP BOUNDS     =     6842536.5000       HEAD DEP BOUNDS     =           0.2869
      STREAM LEAKAGE     =   246216992.0000        STREAM LEAKAGE     =          10.4096
        UZF RECHARGE     =           0.0000          UZF RECHARGE     =           0.0000
               GW ET     =           0.0000                 GW ET     =           0.0000
     SURFACE LEAKAGE     =           0.0000       SURFACE LEAKAGE     =           0.0000
           AG WELLS      =   178258384.0000             AG WELLS      =           0.0000

               TOTAL OUT =   504711424.0000                 TOTAL OUT =          19.9316

                IN - OUT =       -2752.0000                  IN - OUT =       9.5367E-05

     PERCENT DISCREPANCY =          -0.00         PERCENT DISCREPANCY =           0.00






         TIME SUMMARY AT END OF TIME STEP   30 IN STRESS PERIOD   10
                    SECONDS     MINUTES      HOURS       DAYS        YEARS
                    -----------------------------------------------------------
   TIME STEP LENGTH  87667.      1461.1      24.352      1.0147     2.77799E-03
 STRESS PERIOD TIME 2.63000E+06  43833.      730.56      30.440     8.33397E-02
         TOTAL TIME 2.37564E+07 3.95940E+05  6599.0      274.96     0.75279    
1
1
                            STRESS PERIOD NO.   11, LENGTH =   2630000.    
                            -----------------------------------------------

                              NUMBER OF TIME STEPS =    30

                               MULTIPLIER FOR DELT =     1.000

                            INITIAL TIME STEP SIZE =   87666.66    

 REUSING NON-PARAMETER GHB CELLS FROM LAST STRESS PERIOD

      2 GHB CELLS

 REUSING STREAM SEGMENT DATA FROM LAST STRESS PERIOD



            AREAL INFILTRATION RATE
 READING ON UNIT   19 WITH FORMAT: (FREE)              

            1           2           3           4           5           6           7           8           9          10
 ........................................................................................................................
   1   1.0000E-10  2.0000E-10   0.000       0.000       0.000       0.000       0.000       0.000       0.000       0.000    
   2   2.0000E-10  1.0000E-10  2.0000E-10   0.000       0.000      8.0000E-10  8.0000E-10  5.0000E-10   0.000       0.000    
   3    0.000      5.0000E-10  1.0000E-10  1.0000E-10  8.0000E-10  8.0000E-10  5.0000E-10  5.0000E-10   0.000       0.000    
   4   8.0000E-10  5.0000E-10  1.0000E-10  1.0000E-10  1.0000E-10  1.0000E-10  1.0000E-10  1.0000E-10  2.0000E-10   0.000    
   5   8.0000E-10  5.0000E-10  1.0000E-10  1.0000E-10  1.0000E-10  1.0000E-10  1.0000E-10  1.0000E-10  1.0000E-10  1.0000E-10
   6   8.0000E-10  5.0000E-10  5.0000E-10  2.0000E-10  2.0000E-10  1.0000E-10  1.0000E-10  1.0000E-10  1.0000E-10  5.0000E-10
   7   8.0000E-10  5.0000E-10  5.0000E-10  2.0000E-10  2.0000E-10  1.0000E-10  1.0000E-10  2.0000E-10  2.0000E-10   0.000    
   8    0.000      5.0000E-10  5.0000E-10  2.0000E-10  2.0000E-10  1.0000E-10  1.0000E-10  2.0000E-10  5.0000E-10   0.000    
   9    0.000      5.0000E-10  5.0000E-10  2.0000E-10  2.0000E-10  1.0000E-10  1.0000E-10  2.0000E-10  5.0000E-10   0.000    
  10    0.000      5.0000E-10  5.0000E-10  2.0000E-10  2.0000E-10  1.0000E-10  1.0000E-10  2.0000E-10  5.0000E-10  8.0000E-10
  11    0.000      1.0000E-10  1.0000E-10  1.0000E-10  1.0000E-10  1.0000E-10  1.0000E-10  2.0000E-10  5.0000E-10   0.000    
  12   1.0000E-10  1.0000E-10  1.0000E-10  1.0000E-10  1.0000E-10  1.0000E-10  1.0000E-10  1.0000E-10  2.0000E-10   0.000    
  13   1.0000E-10  1.0000E-10  2.0000E-10  2.0000E-10  2.0000E-10  2.0000E-10  2.0000E-10  1.0000E-10  1.0000E-10   0.000    
  14    0.000      2.0000E-10  5.0000E-10  5.0000E-10  5.0000E-10  5.0000E-10  5.0000E-10  2.0000E-10  1.0000E-10   0.000    
  15    0.000       0.000      8.0000E-10  8.0000E-10  8.0000E-10  8.0000E-10   0.000       0.000       0.000       0.000    

                  ET RATE =  5.000000E-09

 USING ET EXTINCTION DEPTH FROM PREVIOUS STRESS PERIOD. CURRENT PERIOD IS:      11

 USING EXTINCTION WATER CONTENT FROM PREVIOUS STRESS PERIOD. CURRENT PERIOD IS:      11

 USING AIR ENTRY PRESSURE FROM PREVIOUS STRESS PERIOD. CURRENT PERIOD IS:      11

 USING ROOT PRESSURE HEAD FROM PREVIOUS STRESS PERIOD. CURRENT PERIOD IS:      11

 USING ROOT ACTIVITY FROM PREVIOUS STRESS PERIOD. CURRENT PERIOD IS:      11

 PROCESSING AG STRESS PERIOD DATA

 READING AG STRESS PERIOD DATA

 READING IRRIGATION SEGMENT

 READING IRRIGATION WELL

 READING SUPPLEMENTAL WELL

 END PROCESSING AG STRESS PERIOD DATA OPTIONS
 
 SOLVING FOR HEAD 
                                                   Max.-Head-Change                         Max.-Flux-Residual
  Residual-Control   Outer-Iter.   Inner-Iter.     Column Row Layer    Maximum-Head-Change  Column Row Layer    Maximum-Flux-Residual          L2-NORM 
          0                 1           2             4    7     1       0.3545315220E-01       4    7    1         0.1868071194E+01      0.3910016027E+01
          0                 2           2             4    7     1      -0.3448644635E-02       4    7    1        -0.1868084662E+00      0.3925468662E+00
          0                 3           2             4    7     1       0.2348397220E-03       4    7    1         0.1307658553E-01      0.2746974909E-01
          0                 4           1             4    7     1      -0.9344492978E-05       4    7    1        -0.5348331513E-03      0.1122955620E-02

    ------------------------------------------------
       NWT REQUIRED            4 OUTER ITERATIONS 
       AND A TOTAL OF          7 INNER ITERATIONS.
    ------------------------------------------------

 NO OUTPUT CONTROL FOR STRESS PERIOD   11   TIME STEP    1
 
 SOLVING FOR HEAD 
                                                   Max.-Head-Change                         Max.-Flux-Residual
  Residual-Control   Outer-Iter.   Inner-Iter.     Column Row Layer    Maximum-Head-Change  Column Row Layer    Maximum-Flux-Residual          L2-NORM 
          0                 1           2             4    7     1       0.3495559395E-01       4    7    1         0.1842087194E+01      0.3832911038E+01
          0                 2           2             4    7     1      -0.3400245657E-02       4    7    1        -0.1842100571E+00      0.3832497922E+00
          0                 3           2             4    7     1       0.2315439325E-03       4    7    1         0.1289469690E-01      0.2682364247E-01
          0                 4           1             4    7     1      -0.9213350667E-05       4    7    1        -0.5273939048E-03      0.1096756297E-02

    ------------------------------------------------
       NWT REQUIRED            4 OUTER ITERATIONS 
       AND A TOTAL OF          7 INNER ITERATIONS.
    ------------------------------------------------

 NO OUTPUT CONTROL FOR STRESS PERIOD   11   TIME STEP    2
 
 SOLVING FOR HEAD 
                                                   Max.-Head-Change                         Max.-Flux-Residual
  Residual-Control   Outer-Iter.   Inner-Iter.     Column Row Layer    Maximum-Head-Change  Column Row Layer    Maximum-Flux-Residual          L2-NORM 
          0                 1           2             4    7     1       0.3446108576E-01       4    7    1         0.1816238174E+01      0.3762970636E+01
          0                 2           2             4    7     1      -0.3352143333E-02       4    7    1        -0.1816251436E+00      0.3762614326E+00
          0                 3           2             4    7     1       0.2282683439E-03       4    7    1         0.1271375299E-01      0.2633499620E-01
          0                 4           1             4    7     1      -0.9083011718E-05       4    7    1        -0.5199932727E-03      0.1076927510E-02

    ------------------------------------------------
       NWT REQUIRED            4 OUTER ITERATIONS 
       AND A TOTAL OF          7 INNER ITERATIONS.
    ------------------------------------------------

 NO OUTPUT CONTROL FOR STRESS PERIOD   11   TIME STEP    3
 
 SOLVING FOR HEAD 
                                                   Max.-Head-Change                         Max.-Flux-Residual
  Residual-Control   Outer-Iter.   Inner-Iter.     Column Row Layer    Maximum-Head-Change  Column Row Layer    Maximum-Flux-Residual          L2-NORM 
          0                 1           2             4    7     1       0.3396989418E-01       4    7    1         0.1790539962E+01      0.3695236433E+01
          0                 2           2             4    7     1      -0.3304363593E-02       4    7    1        -0.1790553089E+00      0.3694928009E+00
          0                 3           2             4    7     1       0.2250147229E-03       4    7    1         0.1253386461E-01      0.2586162387E-01
          0                 4           1             4    7     1      -0.8953547162E-05       4    7    1        -0.5126358392E-03      0.1057517991E-02

    ------------------------------------------------
       NWT REQUIRED            4 OUTER ITERATIONS 
       AND A TOTAL OF          7 INNER ITERATIONS.
    ------------------------------------------------

 NO OUTPUT CONTROL FOR STRESS PERIOD   11   TIME STEP    4
 
 SOLVING FOR HEAD 
                                                   Max.-Head-Change                         Max.-Flux-Residual
  Residual-Control   Outer-Iter.   Inner-Iter.     Column Row Layer    Maximum-Head-Change  Column Row Layer    Maximum-Flux-Residual          L2-NORM 
          0                 1           2             4    7     1       0.3348252136E-01       4    7    1         0.1765021029E+01      0.3629595126E+01
          0                 2           2             4    7     1      -0.3256955288E-02       4    7    1        -0.1765034002E+00      0.3629328312E+00
          0                 3           2             4    7     1       0.2217863954E-03       4    7    1         0.1235523109E-01      0.2540281688E-01
          0                 4           1             4    7     1      -0.8825088937E-05       4    7    1        -0.5053297136E-03      0.1038831351E-02

    ------------------------------------------------
       NWT REQUIRED            4 OUTER ITERATIONS 
       AND A TOTAL OF          7 INNER ITERATIONS.
    ------------------------------------------------

 NO OUTPUT CONTROL FOR STRESS PERIOD   11   TIME STEP    5
 
 SOLVING FOR HEAD 
                                                   Max.-Head-Change                         Max.-Flux-Residual
  Residual-Control   Outer-Iter.   Inner-Iter.     Column Row Layer    Maximum-Head-Change  Column Row Layer    Maximum-Flux-Residual          L2-NORM 
          0                 1           2             4    7     1       0.3299929464E-01       4    7    1         0.1739700086E+01      0.3565949201E+01
          0                 2           2             4    7     1      -0.3209950262E-02       4    7    1        -0.1739712890E+00      0.3565719652E+00
          0                 3           2             4    7     1       0.2185855295E-03       4    7    1         0.1217798337E-01      0.2495807835E-01
          0                 4           1             4    7     1      -0.8697723388E-05       4    7    1        -0.4980802735E-03      0.1020674108E-02

    ------------------------------------------------
       NWT REQUIRED            4 OUTER ITERATIONS 
       AND A TOTAL OF          7 INNER ITERATIONS.
    ------------------------------------------------

 NO OUTPUT CONTROL FOR STRESS PERIOD   11   TIME STEP    6
 
 SOLVING FOR HEAD 
                                                   Max.-Head-Change                         Max.-Flux-Residual
  Residual-Control   Outer-Iter.   Inner-Iter.     Column Row Layer    Maximum-Head-Change  Column Row Layer    Maximum-Flux-Residual          L2-NORM 
          0                 1           2             4    7     1       0.3252037289E-01       4    7    1         0.1714586779E+01      0.3504192427E+01
          0                 2           2             4    7     1      -0.3163363972E-02       4    7    1        -0.1714599400E+00      0.3503994419E+00
          0                 3           2             4    7     1       0.2154131785E-03       4    7    1         0.1200218904E-01      0.2452626629E-01
          0                 4           1             4    7     1      -0.8571492651E-05       4    7    1        -0.4908902733E-03      0.1003029412E-02

    ------------------------------------------------
       NWT REQUIRED            4 OUTER ITERATIONS 
       AND A TOTAL OF          7 INNER ITERATIONS.
    ------------------------------------------------

 NO OUTPUT CONTROL FOR STRESS PERIOD   11   TIME STEP    7
 
 SOLVING FOR HEAD 
                                                   Max.-Head-Change                         Max.-Flux-Residual
  Residual-Control   Outer-Iter.   Inner-Iter.     Column Row Layer    Maximum-Head-Change  Column Row Layer    Maximum-Flux-Residual          L2-NORM 
          0                 1           2             4    7     1       0.3204629121E-01       4    7    1         0.1689711325E+01      0.3444244610E+01
          0                 2           2             4    7     1      -0.3117248472E-02       4    7    1        -0.1689723752E+00      0.3444070920E+00
          0                 3           2             4    7     1       0.2122728865E-03       4    7    1         0.1182805961E-01      0.2410690071E-01
          0                 4           1             4    7     1      -0.8446537644E-05       4    7    1        -0.4837683703E-03      0.9858941433E-03

    ------------------------------------------------
       NWT REQUIRED            4 OUTER ITERATIONS 
       AND A TOTAL OF          7 INNER ITERATIONS.
    ------------------------------------------------

 NO OUTPUT CONTROL FOR STRESS PERIOD   11   TIME STEP    8
 
 SOLVING FOR HEAD 
                                                   Max.-Head-Change                         Max.-Flux-Residual
  Residual-Control   Outer-Iter.   Inner-Iter.     Column Row Layer    Maximum-Head-Change  Column Row Layer    Maximum-Flux-Residual          L2-NORM 
          0                 1           2             4    7     1       0.3157700305E-01       4    7    1         0.1665072160E+01      0.3386010897E+01
          0                 2           2             4    7     1      -0.3071599237E-02       4    7    1        -0.1665084384E+00      0.3385862056E+00
          0                 3           2             4    7     1       0.2091643463E-03       4    7    1         0.1165558417E-01      0.2369963791E-01
          0                 4           1             4    7     1      -0.8322846277E-05       4    7    1        -0.4767141290E-03      0.9692295641E-03

    ------------------------------------------------
       NWT REQUIRED            4 OUTER ITERATIONS 
       AND A TOTAL OF          7 INNER ITERATIONS.
    ------------------------------------------------

 NO OUTPUT CONTROL FOR STRESS PERIOD   11   TIME STEP    9
 
 SOLVING FOR HEAD 
                                                   Max.-Head-Change                         Max.-Flux-Residual
  Residual-Control   Outer-Iter.   Inner-Iter.     Column Row Layer    Maximum-Head-Change  Column Row Layer    Maximum-Flux-Residual          L2-NORM 
          0                 1           2             4    7     1       0.3111285435E-01       4    7    1         0.1640688854E+01      0.3329421761E+01
          0                 2           2             4    7     1      -0.3026446962E-02       4    7    1        -0.1640700866E+00      0.3327967055E+00
          0                 3           2             4    7     1       0.2060896465E-03       4    7    1         0.1148489968E-01      0.2329487015E-01
          0                 4           1             4    7     1      -0.8200500752E-05       4    7    1        -0.4697331037E-03      0.9525479124E-03

    ------------------------------------------------
       NWT REQUIRED            4 OUTER ITERATIONS 
       AND A TOTAL OF          7 INNER ITERATIONS.
    ------------------------------------------------

 NO OUTPUT CONTROL FOR STRESS PERIOD   11   TIME STEP   10
 
 SOLVING FOR HEAD 
                                                   Max.-Head-Change                         Max.-Flux-Residual
  Residual-Control   Outer-Iter.   Inner-Iter.     Column Row Layer    Maximum-Head-Change  Column Row Layer    Maximum-Flux-Residual          L2-NORM 
          0                 1           2             4    7     1       0.3065417440E-01       4    7    1         0.1616579502E+01      0.3274505504E+01
          0                 2           2             4    7     1      -0.2981832553E-02       4    7    1        -0.1616591296E+00      0.3274397015E+00
          0                 3           2             4    7     1       0.2030515735E-03       4    7    1         0.1131613279E-01      0.2291976273E-01
          0                 4           1             4    7     1      -0.8079612742E-05       4    7    1        -0.4628305333E-03      0.9373644211E-03

    ------------------------------------------------
       NWT REQUIRED            4 OUTER ITERATIONS 
       AND A TOTAL OF          7 INNER ITERATIONS.
    ------------------------------------------------

 NO OUTPUT CONTROL FOR STRESS PERIOD   11   TIME STEP   11
 
 SOLVING FOR HEAD 
                                                   Max.-Head-Change                         Max.-Flux-Residual
  Residual-Control   Outer-Iter.   Inner-Iter.     Column Row Layer    Maximum-Head-Change  Column Row Layer    Maximum-Flux-Residual          L2-NORM 
          0                 1           2             4    7     1       0.3020083449E-01       4    7    1         0.1592738718E+01      0.3221233124E+01
          0                 2           2             4    7     1      -0.2937734617E-02       4    7    1        -0.1592750288E+00      0.3221139204E+00
          0                 3           2             4    7     1       0.2000486709E-03       4    7    1         0.1114924590E-01      0.2254704658E-01
          0                 4           1             4    7     1      -0.7960124453E-05       4    7    1        -0.4560048424E-03      0.9221105115E-03

    ------------------------------------------------
       NWT REQUIRED            4 OUTER ITERATIONS 
       AND A TOTAL OF          7 INNER ITERATIONS.
    ------------------------------------------------

 NO OUTPUT CONTROL FOR STRESS PERIOD   11   TIME STEP   12
 
 SOLVING FOR HEAD 
                                                   Max.-Head-Change                         Max.-Flux-Residual
  Residual-Control   Outer-Iter.   Inner-Iter.     Column Row Layer    Maximum-Head-Change  Column Row Layer    Maximum-Flux-Residual          L2-NORM 
          0                 1           2             4    7     1       0.2975325220E-01       4    7    1         0.1569189618E+01      0.3169383209E+01
          0                 2           2             4    7     1      -0.2894196732E-02       4    7    1        -0.1569200960E+00      0.3169302297E+00
          0                 3           2             4    7     1       0.1970839055E-03       4    7    1         0.1098440073E-01      0.2218430109E-01
          0                 4           1             4    7     1      -0.7842153892E-05       4    7    1        -0.4492626667E-03      0.9073042347E-03

    ------------------------------------------------
       NWT REQUIRED            4 OUTER ITERATIONS 
       AND A TOTAL OF          7 INNER ITERATIONS.
    ------------------------------------------------

 NO OUTPUT CONTROL FOR STRESS PERIOD   11   TIME STEP   13
 
 SOLVING FOR HEAD 
                                                   Max.-Head-Change                         Max.-Flux-Residual
  Residual-Control   Outer-Iter.   Inner-Iter.     Column Row Layer    Maximum-Head-Change  Column Row Layer    Maximum-Flux-Residual          L2-NORM 
          0                 1           2             4    7     1       0.2931140230E-01       4    7    1         0.1545931707E+01      0.3118897853E+01
          0                 2           2             4    7     1      -0.2851216450E-02       4    7    1        -0.1545942819E+00      0.3118828580E+00
          0                 3           2             4    7     1       0.1941571110E-03       4    7    1         0.1082159389E-01      0.2183106627E-01
          0                 4           1             4    7     1      -0.7725693920E-05       4    7    1        -0.4426038599E-03      0.8928392475E-03

    ------------------------------------------------
       NWT REQUIRED            4 OUTER ITERATIONS 
       AND A TOTAL OF          7 INNER ITERATIONS.
    ------------------------------------------------

 NO OUTPUT CONTROL FOR STRESS PERIOD   11   TIME STEP   14
 
 SOLVING FOR HEAD 
                                                   Max.-Head-Change                         Max.-Flux-Residual
  Residual-Control   Outer-Iter.   Inner-Iter.     Column Row Layer    Maximum-Head-Change  Column Row Layer    Maximum-Flux-Residual          L2-NORM 
          0                 1           2             4    7     1       0.2887551415E-01       4    7    1         0.1522978339E+01      0.3069720805E+01
          0                 2           2             4    7     1      -0.2808816080E-02       4    7    1        -0.1522989217E+00      0.3069661581E+00
          0                 3           2             4    7     1       0.1912698062E-03       4    7    1         0.1066091884E-01      0.2148702473E-01
          0                 4           1             4    7     1      -0.7610805094E-05       4    7    1        -0.4360322350E-03      0.8787780113E-03

    ------------------------------------------------
       NWT REQUIRED            4 OUTER ITERATIONS 
       AND A TOTAL OF          7 INNER ITERATIONS.
    ------------------------------------------------

 NO OUTPUT CONTROL FOR STRESS PERIOD   11   TIME STEP   15
 
 SOLVING FOR HEAD 
                                                   Max.-Head-Change                         Max.-Flux-Residual
  Residual-Control   Outer-Iter.   Inner-Iter.     Column Row Layer    Maximum-Head-Change  Column Row Layer    Maximum-Flux-Residual          L2-NORM 
          0                 1           2             4    7     1       0.2844552229E-01       4    7    1         0.1500326743E+01      0.3021799498E+01
          0                 2           2             4    7     1      -0.2766989318E-02       4    7    1        -0.1500337388E+00      0.3021750089E+00
          0                 3           2             4    7     1       0.1884215609E-03       4    7    1         0.1050235619E-01      0.2115171389E-01
          0                 4           1             4    7     1      -0.7497471182E-05       4    7    1        -0.4295470308E-03      0.8650896721E-03

    ------------------------------------------------
       NWT REQUIRED            4 OUTER ITERATIONS 
       AND A TOTAL OF          7 INNER ITERATIONS.
    ------------------------------------------------

 NO OUTPUT CONTROL FOR STRESS PERIOD   11   TIME STEP   16
 
 SOLVING FOR HEAD 
                                                   Max.-Head-Change                         Max.-Flux-Residual
  Residual-Control   Outer-Iter.   Inner-Iter.     Column Row Layer    Maximum-Head-Change  Column Row Layer    Maximum-Flux-Residual          L2-NORM 
          0                 1           2             4    7     1       0.2802162285E-01       4    7    1         0.1477988185E+01      0.2975082030E+01
          0                 2           2             4    7     1      -0.2725755218E-02       4    7    1        -0.1477998595E+00      0.2975041861E+00
          0                 3           2             4    7     1       0.1856136746E-03       4    7    1         0.1034598480E-01      0.2082485834E-01
          0                 4           1             4    7     1      -0.7385742494E-05       4    7    1        -0.4231514094E-03      0.8516997310E-03

    ------------------------------------------------
       NWT REQUIRED            4 OUTER ITERATIONS 
       AND A TOTAL OF          7 INNER ITERATIONS.
    ------------------------------------------------

 NO OUTPUT CONTROL FOR STRESS PERIOD   11   TIME STEP   17
 
 SOLVING FOR HEAD 
                                                   Max.-Head-Change                         Max.-Flux-Residual
  Residual-Control   Outer-Iter.   Inner-Iter.     Column Row Layer    Maximum-Head-Change  Column Row Layer    Maximum-Flux-Residual          L2-NORM 
          0                 1           2             4    7     1       0.2760372509E-01       4    7    1         0.1455958173E+01      0.2929530133E+01
          0                 2           2             4    7     1      -0.2685104812E-02       4    7    1        -0.1455968349E+00      0.2929496059E+00
          0                 3           2             4    7     1       0.1828455360E-03       4    7    1         0.1019177322E-01      0.2050611294E-01
          0                 4           1             4    7     1      -0.7275595544E-05       4    7    1        -0.4168441446E-03      0.8386924515E-03

    ------------------------------------------------
       NWT REQUIRED            4 OUTER ITERATIONS 
       AND A TOTAL OF          7 INNER ITERATIONS.
    ------------------------------------------------

 NO OUTPUT CONTROL FOR STRESS PERIOD   11   TIME STEP   18
 
 SOLVING FOR HEAD 
                                                   Max.-Head-Change                         Max.-Flux-Residual
  Residual-Control   Outer-Iter.   Inner-Iter.     Column Row Layer    Maximum-Head-Change  Column Row Layer    Maximum-Flux-Residual          L2-NORM 
          0                 1           2             4    7     1       0.2719199332E-01       4    7    1         0.1434246672E+01      0.2885096579E+01
          0                 2           2             4    7     1      -0.2645054190E-02       4    7    1        -0.1434256615E+00      0.2885068296E+00
          0                 3           2             4    7     1       0.1801182409E-03       4    7    1         0.1003979125E-01      0.2019515095E-01
          0                 4           1             4    7     1      -0.7167074080E-05       4    7    1        -0.4106280837E-03      0.8259777189E-03

    ------------------------------------------------
       NWT REQUIRED            4 OUTER ITERATIONS 
       AND A TOTAL OF          7 INNER ITERATIONS.
    ------------------------------------------------

 NO OUTPUT CONTROL FOR STRESS PERIOD   11   TIME STEP   19
 
 SOLVING FOR HEAD 
                                                   Max.-Head-Change                         Max.-Flux-Residual
  Residual-Control   Outer-Iter.   Inner-Iter.     Column Row Layer    Maximum-Head-Change  Column Row Layer    Maximum-Flux-Residual          L2-NORM 
          0                 1           2             4    7     1       0.2678644382E-01       4    7    1         0.1412854866E+01      0.2841745379E+01
          0                 2           2             4    7     1      -0.2605604938E-02       4    7    1        -0.1412864577E+00      0.2841722014E+00
          0                 3           2             4    7     1       0.1774318963E-03       4    7    1         0.9890047133E-02      0.1989179160E-01
          0                 4           1             4    7     1      -0.7060181902E-05       4    7    1        -0.4045035405E-03      0.8135581175E-03

    ------------------------------------------------
       NWT REQUIRED            4 OUTER ITERATIONS 
       AND A TOTAL OF          7 INNER ITERATIONS.
    ------------------------------------------------

 NO OUTPUT CONTROL FOR STRESS PERIOD   11   TIME STEP   20
 
 SOLVING FOR HEAD 
                                                   Max.-Head-Change                         Max.-Flux-Residual
  Residual-Control   Outer-Iter.   Inner-Iter.     Column Row Layer    Maximum-Head-Change  Column Row Layer    Maximum-Flux-Residual          L2-NORM 
          0                 1           2             4    7     1       0.2638707568E-01       4    7    1         0.1391783599E+01      0.2799431231E+01
          0                 2           2             4    7     1      -0.2566756966E-02       4    7    1        -0.1391793080E+00      0.2799411490E+00
          0                 3           2             4    7     1       0.1747864967E-03       4    7    1         0.9742546802E-02      0.1959560935E-01
          0                 4           1             4    7     1      -0.6954919010E-05       4    7    1        -0.3984707660E-03      0.8016773007E-03

    ------------------------------------------------
       NWT REQUIRED            4 OUTER ITERATIONS 
       AND A TOTAL OF          7 INNER ITERATIONS.
    ------------------------------------------------

 NO OUTPUT CONTROL FOR STRESS PERIOD   11   TIME STEP   21
 
 SOLVING FOR HEAD 
                                                   Max.-Head-Change                         Max.-Flux-Residual
  Residual-Control   Outer-Iter.   Inner-Iter.     Column Row Layer    Maximum-Head-Change  Column Row Layer    Maximum-Flux-Residual          L2-NORM 
          0                 1           2             4    7     1       0.2599388323E-01       4    7    1         0.1371032822E+01      0.2758123611E+01
          0                 2           2             4    7     1      -0.2528509724E-02       4    7    1        -0.1371042076E+00      0.2758107458E+00
          0                 3           2             4    7     1       0.1721820045E-03       4    7    1         0.9597289922E-02      0.1930652824E-01
          0                 4           1             4    7     1      -0.6851283677E-05       4    7    1        -0.3925297451E-03      0.7896209465E-03

    ------------------------------------------------
       NWT REQUIRED            4 OUTER ITERATIONS 
       AND A TOTAL OF          7 INNER ITERATIONS.
    ------------------------------------------------

 NO OUTPUT CONTROL FOR STRESS PERIOD   11   TIME STEP   22
 
 SOLVING FOR HEAD 
                                                   Max.-Head-Change                         Max.-Flux-Residual
  Residual-Control   Outer-Iter.   Inner-Iter.     Column Row Layer    Maximum-Head-Change  Column Row Layer    Maximum-Flux-Residual          L2-NORM 
          0                 1           2             4    7     1       0.2560685106E-01       4    7    1         0.1350602244E+01      0.2717788627E+01
          0                 2           2             4    7     1      -0.2490861713E-02       4    7    1        -0.1350611272E+00      0.2717775729E+00
          0                 3           2             4    7     1       0.1696183179E-03       4    7    1         0.9454274455E-02      0.1902424793E-01
          0                 4           1             4    7     1      -0.6749272334E-05       4    7    1        -0.3866804086E-03      0.7780775950E-03

    ------------------------------------------------
       NWT REQUIRED            4 OUTER ITERATIONS 
       AND A TOTAL OF          7 INNER ITERATIONS.
    ------------------------------------------------

 NO OUTPUT CONTROL FOR STRESS PERIOD   11   TIME STEP   23
 
 SOLVING FOR HEAD 
                                                   Max.-Head-Change                         Max.-Flux-Residual
  Residual-Control   Outer-Iter.   Inner-Iter.     Column Row Layer    Maximum-Head-Change  Column Row Layer    Maximum-Flux-Residual          L2-NORM 
          0                 1           2             4    7     1       0.2522608407E-01       4    7    1         0.1330498398E+01      0.2678384408E+01
          0                 2           2             4    7     1      -0.2453823138E-02       4    7    1        -0.1330507205E+00      0.2678374252E+00
          0                 3           2             4    7     1       0.1670961313E-03       4    7    1         0.9313546128E-02      0.1874846527E-01
          0                 4           1             4    7     1      -0.6648912036E-05       4    7    1        -0.3809246080E-03      0.7668012665E-03

    ------------------------------------------------
       NWT REQUIRED            4 OUTER ITERATIONS 
       AND A TOTAL OF          7 INNER ITERATIONS.
    ------------------------------------------------

 NO OUTPUT CONTROL FOR STRESS PERIOD   11   TIME STEP   24
 
 SOLVING FOR HEAD 
                                                   Max.-Head-Change                         Max.-Flux-Residual
  Residual-Control   Outer-Iter.   Inner-Iter.     Column Row Layer    Maximum-Head-Change  Column Row Layer    Maximum-Flux-Residual          L2-NORM 
          0                 1           2             4    7     1       0.2485127519E-01       4    7    1         0.1310704721E+01      0.2639884815E+01
          0                 2           2             4    7     1      -0.2417364130E-02       4    7    1        -0.1310713310E+00      0.2639876275E+00
          0                 3           2             4    7     1       0.1646134112E-03       4    7    1         0.9174989001E-02      0.1847899820E-01
          0                 4           1             4    7     1      -0.6550122309E-05       4    7    1        -0.3752576174E-03      0.7557800586E-03

    ------------------------------------------------
       NWT REQUIRED            4 OUTER ITERATIONS 
       AND A TOTAL OF          7 INNER ITERATIONS.
    ------------------------------------------------

 NO OUTPUT CONTROL FOR STRESS PERIOD   11   TIME STEP   25
 
 SOLVING FOR HEAD 
                                                   Max.-Head-Change                         Max.-Flux-Residual
  Residual-Control   Outer-Iter.   Inner-Iter.     Column Row Layer    Maximum-Head-Change  Column Row Layer    Maximum-Flux-Residual          L2-NORM 
          0                 1           2             4    7     1       0.2448279899E-01       4    7    1         0.1291241967E+01      0.2602271788E+01
          0                 2           2             4    7     1      -0.2381521124E-02       4    7    1        -0.1291250340E+00      0.2602265812E+00
          0                 3           2             4    7     1       0.1621726383E-03       4    7    1         0.9038748353E-02      0.1821574474E-01
          0                 4           1             4    7     1      -0.6453001701E-05       4    7    1        -0.3696853612E-03      0.7449925266E-03

    ------------------------------------------------
       NWT REQUIRED            4 OUTER ITERATIONS 
       AND A TOTAL OF          7 INNER ITERATIONS.
    ------------------------------------------------

 NO OUTPUT CONTROL FOR STRESS PERIOD   11   TIME STEP   26
 
 SOLVING FOR HEAD 
                                                   Max.-Head-Change                         Max.-Flux-Residual
  Residual-Control   Outer-Iter.   Inner-Iter.     Column Row Layer    Maximum-Head-Change  Column Row Layer    Maximum-Flux-Residual          L2-NORM 
          0                 1           2             4    7     1       0.2412018934E-01       4    7    1         0.1272085544E+01      0.2565492131E+01
          0                 2           2             4    7     1      -0.2346248779E-02       4    7    1        -0.1272093705E+00      0.2565487743E+00
          0                 3           2             4    7     1       0.1597707256E-03       4    7    1         0.8904652057E-02      0.1795831292E-01
          0                 4           1             4    7     1      -0.6357427142E-05       4    7    1        -0.3642008114E-03      0.7344827641E-03

    ------------------------------------------------
       NWT REQUIRED            4 OUTER ITERATIONS 
       AND A TOTAL OF          7 INNER ITERATIONS.
    ------------------------------------------------

 NO OUTPUT CONTROL FOR STRESS PERIOD   11   TIME STEP   27
 
 SOLVING FOR HEAD 
                                                   Max.-Head-Change                         Max.-Flux-Residual
  Residual-Control   Outer-Iter.   Inner-Iter.     Column Row Layer    Maximum-Head-Change  Column Row Layer    Maximum-Flux-Residual          L2-NORM 
          0                 1           2             4    7     1       0.2376366929E-01       4    7    1         0.1253247963E+01      0.2529537051E+01
          0                 2           2             4    7     1      -0.2311568791E-02       4    7    1        -0.1253255916E+00      0.2529534123E+00
          0                 3           2             4    7     1       0.1574091501E-03       4    7    1         0.8772787671E-02      0.1770665236E-01
          0                 4           1             4    7     1      -0.6263458037E-05       4    7    1        -0.3588075583E-03      0.7241975627E-03

    ------------------------------------------------
       NWT REQUIRED            4 OUTER ITERATIONS 
       AND A TOTAL OF          7 INNER ITERATIONS.
    ------------------------------------------------

 NO OUTPUT CONTROL FOR STRESS PERIOD   11   TIME STEP   28
 
 SOLVING FOR HEAD 
                                                   Max.-Head-Change                         Max.-Flux-Residual
  Residual-Control   Outer-Iter.   Inner-Iter.     Column Row Layer    Maximum-Head-Change  Column Row Layer    Maximum-Flux-Residual          L2-NORM 
          0                 1           2             4    7     1       0.2341317880E-01       4    7    1         0.1234726116E+01      0.2494382204E+01
          0                 2           2             4    7     1      -0.2277475322E-02       4    7    1        -0.1234733866E+00      0.2494380518E+00
          0                 3           2             4    7     1       0.1550875139E-03       4    7    1         0.8643133453E-02      0.1746058518E-01
          0                 4           1             4    7     1      -0.6171077579E-05       4    7    1        -0.3535046790E-03      0.7141359946E-03

    ------------------------------------------------
       NWT REQUIRED            4 OUTER ITERATIONS 
       AND A TOTAL OF          7 INNER ITERATIONS.
    ------------------------------------------------

 NO OUTPUT CONTROL FOR STRESS PERIOD   11   TIME STEP   29
 
 SOLVING FOR HEAD 
                                                   Max.-Head-Change                         Max.-Flux-Residual
  Residual-Control   Outer-Iter.   Inner-Iter.     Column Row Layer    Maximum-Head-Change  Column Row Layer    Maximum-Flux-Residual          L2-NORM 
          0                 1           2             4    7     1       0.2306864784E-01       4    7    1         0.1216516893E+01      0.2459991611E+01
          0                 2           2             4    7     1      -0.2243961559E-02       4    7    1        -0.1216524443E+00      0.2459990923E+00
          0                 3           2             4    7     1       0.1528053538E-03       4    7    1         0.8515667620E-02      0.1721987516E-01
          0                 4           1             4    7     1      -0.6080268381E-05       4    7    1        -0.3482913235E-03      0.7042881468E-03

    ------------------------------------------------
       NWT REQUIRED            4 OUTER ITERATIONS 
       AND A TOTAL OF          7 INNER ITERATIONS.
    ------------------------------------------------

 NO OUTPUT CONTROL FOR STRESS PERIOD   11   TIME STEP   30



 STREAM LISTING     PERIOD     11   STEP       30

 LAYER ROW COL. STREAM  RCH.  FLOW INTO     FLOW TO   FLOW OUT OF   OVRLND.     DIRECT     STREAM       STREAM     STREAM     STREAM   STREAMBED  STREAMBED
                SEG.NO.  NO.  STRM. RCH.    AQUIFER    STRM. RCH.    RUNOFF     PRECIP       ET          HEAD       DEPTH      WIDTH   CONDCTNC.   GRADIENT

   1    1    1     1     1    1.3125E+01  1.7336E-01   1.2952E+01  0.000E+00  0.000E+00  0.000E+00  1.09402E+03  9.718E-01  9.699E+00  4.365E-02  1.324E+00
   1    2    2     1     2    1.2952E+01  2.6707E-01   1.2684E+01  0.000E+00  0.000E+00  0.000E+00  1.08903E+03  9.671E-01  9.617E+00  6.732E-02  1.322E+00
   1    3    3     1     3    1.2684E+01  2.2641E-01   1.2458E+01  0.000E+00  0.000E+00  0.000E+00  1.08338E+03  9.616E-01  9.525E+00  5.715E-02  1.321E+00
   1    3    4     1     4    1.2458E+01  2.0737E-01   1.2251E+01  0.000E+00  0.000E+00  0.000E+00  1.07836E+03  9.568E-01  9.443E+00  5.241E-02  1.319E+00
   1    4    5     2     1    1.0251E+01  2.8870E-01   9.9620E+00  0.000E+00  0.000E+00  0.000E+00  1.07264E+03  7.013E-01  1.200E+01  7.800E-02  1.234E+00
   1    5    6     2     2    9.9620E+00  2.2144E-01   9.7406E+00  0.000E+00  0.000E+00  0.000E+00  1.06720E+03  6.906E-01  1.200E+01  6.000E-02  1.230E+00
   1    6    6     2     3    9.7406E+00  2.2088E-01   9.5197E+00  0.000E+00  0.000E+00  0.000E+00  1.06247E+03  6.813E-01  1.200E+01  6.000E-02  1.227E+00
   1    7    6     2     4    9.5197E+00  2.2031E-01   9.2994E+00  0.000E+00  0.000E+00  0.000E+00  1.05775E+03  6.719E-01  1.200E+01  6.000E-02  1.224E+00
   1    8    6     2     5    9.2994E+00  2.1974E-01   9.0796E+00  0.000E+00  0.000E+00  0.000E+00  1.05302E+03  6.624E-01  1.200E+01  6.000E-02  1.221E+00
   1    3    5     3     1    2.0000E+00  2.8252E-01   1.7175E+00  0.000E+00  0.000E+00  0.000E+00  1.07555E+03  1.909E+00  9.636E+00  7.227E-02  1.955E+00
   1    3    6     3     2    1.7175E+00  2.4905E-01   1.4684E+00  0.000E+00  0.000E+00  0.000E+00  1.07264E+03  1.727E+00  8.909E+00  6.682E-02  1.864E+00
   1    3    7     3     3    1.4684E+00  1.9718E-01   1.2712E+00  0.000E+00  0.000E+00  0.000E+00  1.06987E+03  1.555E+00  8.218E+00  5.547E-02  1.777E+00
   1    4    8     3     4    1.2712E+00  2.2567E-01   1.0456E+00  0.000E+00  0.000E+00  0.000E+00  1.06682E+03  1.364E+00  7.455E+00  6.709E-02  1.682E+00
   1    5    8     3     5    1.0456E+00  1.5790E-01   8.8768E-01  0.000E+00  0.000E+00  0.000E+00  1.06362E+03  1.164E+00  6.655E+00  4.991E-02  1.582E+00
   1    6    8     3     6    8.8768E-01  5.5980E-02   8.3170E-01  0.000E+00  0.000E+00  0.000E+00  1.06158E+03  1.036E+00  6.145E+00  1.844E-02  1.518E+00
   1    5   10     4     1    1.0000E+01  9.0919E-02   9.9091E+00  0.000E+00  0.000E+00  0.000E+00  1.07836E+03  6.368E-01  1.000E+01  2.500E-02  1.212E+00
   1    5    9     4     2    9.9091E+00  1.8158E-01   9.7275E+00  0.000E+00  0.000E+00  0.000E+00  1.07154E+03  6.315E-01  1.000E+01  5.000E-02  1.211E+00
   1    6    8     4     3    9.7275E+00  1.2689E-01   9.6006E+00  0.000E+00  0.000E+00  0.000E+00  1.06381E+03  6.256E-01  1.000E+01  3.500E-02  1.209E+00
   1    6    8     5     1    1.0432E+01  2.2686E-01   1.0205E+01  0.000E+00  0.000E+00  0.000E+00  1.05868E+03  6.790E-01  1.542E+01  6.166E-02  1.226E+00
   1    7    7     5     2    1.0205E+01  2.7894E-01   9.9265E+00  0.000E+00  0.000E+00  0.000E+00  1.05417E+03  6.732E-01  1.519E+01  7.594E-02  1.224E+00
   1    8    7     5     3    9.9265E+00  1.9221E-01   9.7343E+00  0.000E+00  0.000E+00  0.000E+00  1.04992E+03  6.676E-01  1.497E+01  5.241E-02  1.223E+00
   1    8    6     5     4    9.7343E+00  1.3577E-01   9.5985E+00  0.000E+00  0.000E+00  0.000E+00  1.04691E+03  6.637E-01  1.482E+01  3.706E-02  1.221E+00
   1    9    6     6     1    1.8678E+01  2.4127E-01   1.8437E+01  0.000E+00  0.000E+00  0.000E+00  1.04375E+03  1.021E+00  1.200E+01  6.000E-02  1.340E+00
   1   10    7     6     2    1.8437E+01  2.4079E-01   1.8196E+01  0.000E+00  0.000E+00  0.000E+00  1.03919E+03  1.013E+00  1.200E+01  6.000E-02  1.338E+00
   1   11    7     6     3    1.8196E+01  2.4031E-01   1.7956E+01  0.000E+00  0.000E+00  0.000E+00  1.03464E+03  1.005E+00  1.200E+01  6.000E-02  1.335E+00
   1   12    7     6     4    1.7956E+01  2.3983E-01   1.7716E+01  0.000E+00  0.000E+00  0.000E+00  1.03009E+03  9.971E-01  1.200E+01  6.000E-02  1.332E+00
   1   13    7     6     5    1.7716E+01  1.4298E-03   1.7715E+01  0.000E+00  0.000E+00  0.000E+00  1.02690E+03  9.931E-01  1.200E+01  2.400E-02  1.986E-02
   1   14    9     7     1    1.5000E+02  1.3691E+00   1.4863E+02  0.000E+00  0.000E+00  0.000E+00  1.03987E+03  2.288E+00  5.529E+01  5.593E-01  8.159E-01
   1   13    8     7     2    1.4863E+02  1.9193E+00   1.4671E+02  0.000E+00  0.000E+00  0.000E+00  1.03478E+03  2.279E+00  5.526E+01  6.148E-01  1.041E+00
   1   13    7     7     3    1.4671E+02  1.5894E+00   1.4512E+02  0.000E+00  0.000E+00  0.000E+00  1.02969E+03  2.270E+00  5.521E+01  5.584E-01  9.488E-01
   1   13    6     8     1    1.6284E+02  9.9155E-01   1.6185E+02  0.000E+00  0.000E+00  0.000E+00  1.02478E+03  2.902E+00  4.207E+01  4.287E-01  7.709E-01
   1   13    5     8     2    1.6185E+02  2.3952E-01   1.6161E+02  0.000E+00  0.000E+00  0.000E+00  1.01852E+03  2.897E+00  4.201E+01  4.281E-01  1.865E-01
   1   13    4     8     3    1.6161E+02 -2.2236E+00   1.6383E+02  0.000E+00  0.000E+00  0.000E+00  1.01228E+03  2.904E+00  4.211E+01  4.291E+00 -1.727E-01
   1   13    3     8     4    1.6383E+02 -3.5307E+00   1.6736E+02  0.000E+00  0.000E+00  0.000E+00  1.00605E+03  2.923E+00  4.239E+01  4.319E+00 -2.725E-01
   1   13    2     8     5    1.6736E+02 -2.5282E+00   1.6989E+02  0.000E+00  0.000E+00  0.000E+00  9.99818E+02  2.943E+00  4.268E+01  4.349E+00 -1.938E-01
   1   13    1     8     6    1.6989E+02 -1.9468E+00   1.7184E+02  0.000E+00  0.000E+00  0.000E+00  9.94833E+02  2.958E+00  4.289E+01  2.622E+00 -2.475E-01
   1    8    6     9     1    0.0000E+00  0.0000E+00   0.0000E+00  0.000E+00  0.000E+00  0.000E+00  1.07875E+03  0.000E+00  4.000E+00  0.000E+00  1.000E+00
   1    8    5     9     2    0.0000E+00  0.0000E+00   0.0000E+00  0.000E+00  0.000E+00  0.000E+00  1.07825E+03  0.000E+00  4.000E+00  0.000E+00  1.000E+00





UNSATURATED ZONE PACKAGE VOLUMETRIC BUDGET FOR  TIME STEP    30 STRESS PERIOD   11
  ------------------------------------------------------------------------------



     CUMULATIVE VOLUMES      L**3       RATES FOR THIS TIME STEP      L**3/T
     ------------------                 ------------------------

           IN:                                      IN:
           ---                                      ---
        INFILTRATION =   427329451.4484          INFILTRATION =           0.8475

          OUT:                                     OUT:
          ----                                     ----
              UZF ET =   426069113.7612                UZF ET =           0.8475
        UZF RECHARGE =       73224.0000          UZF RECHARGE =       0.0000E+00

            IN - OUT =     1187113.6871              IN - OUT =       0.0000E+00

          STORAGE:                                 STORAGE:
          --------                                 --------
      STORAGE CHANGE =     1187116.7173        STORAGE CHANGE =       1.7948E-15

 PERCENT DISCREPANCY IS DIFFERENCE BETWEEN IN-OUT MINUS CHANGE IN STORAGE
 DIVIDED BY THE AVERAGE OF IN AND OUT TIMES 100

 PERCENT DISCREPANCY =           0.00     PERCENT DISCREPANCY =           0.00






1
  VOLUMETRIC BUDGET FOR AGRICULTURAL FIELDS AT  END OF TIME STEP   30, STRESS PERIOD  11
  ------------------------------------------------------------------------------

     CUMULATIVE VOLUMES      L**3       RATES FOR THIS TIME STEP      L**3/T
     ------------------                 ------------------------

           IN:                                      IN:
           ---                                      ---
           AG WELLS      =   178258384.0000             AG WELLS      =           0.0000
      DIVERSION SEGMENTS =   226725392.0000        DIVERSION SEGMENTS =           0.0000
           GW IRRIGATION =           0.0000             GW IRRIGATION =           0.0000
           SW IRRIGATION =           0.0000             SW IRRIGATION =           0.0000
        SYSTEM LOSSES GW =           0.0000          SYSTEM LOSSES GW =           0.0000
        SYSTEM LOSSES SW =           0.0000          SYSTEM LOSSES SW =           0.0000

                TOTAL IN =   404983776.0000                  TOTAL IN =           0.0000

          OUT:                                     OUT:
          ----                                     ----
           AG WELLS      =           0.0000             AG WELLS      =           0.0000
      DIVERSION SEGMENTS =           0.0000        DIVERSION SEGMENTS =           0.0000
           GW IRRIGATION =   178258384.0000             GW IRRIGATION =           0.0000
           SW IRRIGATION =   226729728.0000             SW IRRIGATION =           0.0000
        SYSTEM LOSSES GW =           0.0000          SYSTEM LOSSES GW =           0.0000
        SYSTEM LOSSES SW =           0.0000          SYSTEM LOSSES SW =           0.0000

               TOTAL OUT =   404988096.0000                 TOTAL OUT =           0.0000

                IN - OUT =       -4320.0000                  IN - OUT =           0.0000

     PERCENT DISCREPANCY =          -0.00         PERCENT DISCREPANCY =           0.00



1
  VOLUMETRIC BUDGET FOR ENTIRE MODEL AT END OF TIME STEP   30, STRESS PERIOD  11
  ------------------------------------------------------------------------------

     CUMULATIVE VOLUMES      L**3       RATES FOR THIS TIME STEP      L**3/T
     ------------------                 ------------------------

           IN:                                      IN:
           ---                                      ---
             STORAGE     =   233873104.0000               STORAGE     =           5.4420
       CONSTANT HEAD     =           0.0000         CONSTANT HEAD     =           0.0000
     HEAD DEP BOUNDS     =     7597072.5000       HEAD DEP BOUNDS     =           0.2880
      STREAM LEAKAGE     =   311303296.0000        STREAM LEAKAGE     =          11.5192
        UZF RECHARGE     =       73223.9531          UZF RECHARGE     =           0.0000
               GW ET     =           0.0000                 GW ET     =           0.0000
     SURFACE LEAKAGE     =           0.0000       SURFACE LEAKAGE     =           0.0000
           AG WELLS      =           0.0000             AG WELLS      =           0.0000

                TOTAL IN =   552846720.0000                  TOTAL IN =          17.2492

          OUT:                                     OUT:
          ----                                     ----
             STORAGE     =    94180984.0000               STORAGE     =           6.7320
       CONSTANT HEAD     =           0.0000         CONSTANT HEAD     =           0.0000
     HEAD DEP BOUNDS     =     7598678.0000       HEAD DEP BOUNDS     =           0.2879
      STREAM LEAKAGE     =   272811296.0000        STREAM LEAKAGE     =          10.2293
        UZF RECHARGE     =           0.0000          UZF RECHARGE     =           0.0000
               GW ET     =           0.0000                 GW ET     =           0.0000
     SURFACE LEAKAGE     =           0.0000       SURFACE LEAKAGE     =           0.0000
           AG WELLS      =   178258384.0000             AG WELLS      =           0.0000

               TOTAL OUT =   552849344.0000                 TOTAL OUT =          17.2492

                IN - OUT =       -2624.0000                  IN - OUT =       9.5367E-06

     PERCENT DISCREPANCY =          -0.00         PERCENT DISCREPANCY =           0.00






         TIME SUMMARY AT END OF TIME STEP   30 IN STRESS PERIOD   11
                    SECONDS     MINUTES      HOURS       DAYS        YEARS
                    -----------------------------------------------------------
   TIME STEP LENGTH  87667.      1461.1      24.352      1.0147     2.77799E-03
 STRESS PERIOD TIME 2.63000E+06  43833.      730.56      30.440     8.33397E-02
         TOTAL TIME 2.63864E+07 4.39773E+05  7329.5      305.40     0.83613    
1
1
                            STRESS PERIOD NO.   12, LENGTH =   2630000.    
                            -----------------------------------------------

                              NUMBER OF TIME STEPS =    30

                               MULTIPLIER FOR DELT =     1.000

                            INITIAL TIME STEP SIZE =   87666.66    

 REUSING NON-PARAMETER GHB CELLS FROM LAST STRESS PERIOD

      2 GHB CELLS

 REUSING STREAM SEGMENT DATA FROM LAST STRESS PERIOD



            AREAL INFILTRATION RATE
 READING ON UNIT   19 WITH FORMAT: (FREE)              

            1           2           3           4           5           6           7           8           9          10
 ........................................................................................................................
   1   1.0000E-10  2.0000E-10   0.000       0.000       0.000       0.000       0.000       0.000       0.000       0.000    
   2   2.0000E-10  1.0000E-10  2.0000E-10   0.000       0.000      8.0000E-10  8.0000E-10  5.0000E-10   0.000       0.000    
   3    0.000      5.0000E-10  1.0000E-10  1.0000E-10  8.0000E-10  8.0000E-10  5.0000E-10  5.0000E-10   0.000       0.000    
   4   8.0000E-10  5.0000E-10  1.0000E-10  1.0000E-10  1.0000E-10  1.0000E-10  1.0000E-10  1.0000E-10  2.0000E-10   0.000    
   5   8.0000E-10  5.0000E-10  1.0000E-10  1.0000E-10  1.0000E-10  1.0000E-10  1.0000E-10  1.0000E-10  1.0000E-10  1.0000E-10
   6   8.0000E-10  5.0000E-10  5.0000E-10  2.0000E-10  2.0000E-10  1.0000E-10  1.0000E-10  1.0000E-10  1.0000E-10  5.0000E-10
   7   8.0000E-10  5.0000E-10  5.0000E-10  2.0000E-10  2.0000E-10  1.0000E-10  1.0000E-10  2.0000E-10  2.0000E-10   0.000    
   8    0.000      5.0000E-10  5.0000E-10  2.0000E-10  2.0000E-10  1.0000E-10  1.0000E-10  2.0000E-10  5.0000E-10   0.000    
   9    0.000      5.0000E-10  5.0000E-10  2.0000E-10  2.0000E-10  1.0000E-10  1.0000E-10  2.0000E-10  5.0000E-10   0.000    
  10    0.000      5.0000E-10  5.0000E-10  2.0000E-10  2.0000E-10  1.0000E-10  1.0000E-10  2.0000E-10  5.0000E-10  8.0000E-10
  11    0.000      1.0000E-10  1.0000E-10  1.0000E-10  1.0000E-10  1.0000E-10  1.0000E-10  2.0000E-10  5.0000E-10   0.000    
  12   1.0000E-10  1.0000E-10  1.0000E-10  1.0000E-10  1.0000E-10  1.0000E-10  1.0000E-10  1.0000E-10  2.0000E-10   0.000    
  13   1.0000E-10  1.0000E-10  2.0000E-10  2.0000E-10  2.0000E-10  2.0000E-10  2.0000E-10  1.0000E-10  1.0000E-10   0.000    
  14    0.000      2.0000E-10  5.0000E-10  5.0000E-10  5.0000E-10  5.0000E-10  5.0000E-10  2.0000E-10  1.0000E-10   0.000    
  15    0.000       0.000      8.0000E-10  8.0000E-10  8.0000E-10  8.0000E-10   0.000       0.000       0.000       0.000    

                  ET RATE =  5.000000E-10

 USING ET EXTINCTION DEPTH FROM PREVIOUS STRESS PERIOD. CURRENT PERIOD IS:      12

 USING EXTINCTION WATER CONTENT FROM PREVIOUS STRESS PERIOD. CURRENT PERIOD IS:      12

 USING AIR ENTRY PRESSURE FROM PREVIOUS STRESS PERIOD. CURRENT PERIOD IS:      12

 USING ROOT PRESSURE HEAD FROM PREVIOUS STRESS PERIOD. CURRENT PERIOD IS:      12

 USING ROOT ACTIVITY FROM PREVIOUS STRESS PERIOD. CURRENT PERIOD IS:      12

 PROCESSING AG STRESS PERIOD DATA

 READING AG STRESS PERIOD DATA

 READING IRRIGATION SEGMENT

 READING IRRIGATION WELL

 READING SUPPLEMENTAL WELL

 END PROCESSING AG STRESS PERIOD DATA OPTIONS
 
 SOLVING FOR HEAD 
                                                   Max.-Head-Change                         Max.-Flux-Residual
  Residual-Control   Outer-Iter.   Inner-Iter.     Column Row Layer    Maximum-Head-Change  Column Row Layer    Maximum-Flux-Residual          L2-NORM 
          0                 1           2             4    7     1       0.2272997739E-01       4    7    1         0.1198616661E+01      0.2431087183E+01
          0                 2           2             4    7     1      -0.2211017868E-02       4    7    1        -0.1198624015E+00      0.2432464978E+00
          0                 3           2             4    7     1       0.1505620138E-03       4    7    1         0.8390364778E-02      0.1702663179E-01
          0                 4           1             4    7     1      -0.5991003736E-05       4    7    1        -0.3431664311E-03      0.6963366309E-03

    ------------------------------------------------
       NWT REQUIRED            4 OUTER ITERATIONS 
       AND A TOTAL OF          7 INNER ITERATIONS.
    ------------------------------------------------

 NO OUTPUT CONTROL FOR STRESS PERIOD   12   TIME STEP    1
 
 SOLVING FOR HEAD 
                                                   Max.-Head-Change                         Max.-Flux-Residual
  Residual-Control   Outer-Iter.   Inner-Iter.     Column Row Layer    Maximum-Head-Change  Column Row Layer    Maximum-Flux-Residual          L2-NORM 
          0                 1           2             4    7     1       0.2239695684E-01       4    7    1         0.1181012948E+01      0.2399459069E+01
          0                 2           2             4    7     1      -0.2178623767E-02       4    7    1        -0.1181020111E+00      0.2399361495E+00
          0                 3           2             4    7     1       0.1483560982E-03       4    7    1         0.8267137569E-02      0.1679459368E-01
          0                 4           1             4    7     1      -0.5903228496E-05       4    7    1        -0.3381264314E-03      0.6868887134E-03

    ------------------------------------------------
       NWT REQUIRED            4 OUTER ITERATIONS 
       AND A TOTAL OF          7 INNER ITERATIONS.
    ------------------------------------------------

 NO OUTPUT CONTROL FOR STRESS PERIOD   12   TIME STEP    2
 
 SOLVING FOR HEAD 
                                                   Max.-Head-Change                         Max.-Flux-Residual
  Residual-Control   Outer-Iter.   Inner-Iter.     Column Row Layer    Maximum-Head-Change  Column Row Layer    Maximum-Flux-Residual          L2-NORM 
          0                 1           2             4    7     1       0.2206978451E-01       4    7    1         0.1163716849E+01      0.2366890433E+01
          0                 2           2             4    7     1      -0.2146798544E-02       4    7    1        -0.1163723825E+00      0.2366804921E+00
          0                 3           2             4    7     1       0.1461889212E-03       4    7    1         0.8146063694E-02      0.1656678046E-01
          0                 4           1             4    7     1      -0.5816994470E-05       4    7    1        -0.3331745031E-03      0.6775242009E-03

    ------------------------------------------------
       NWT REQUIRED            4 OUTER ITERATIONS 
       AND A TOTAL OF          7 INNER ITERATIONS.
    ------------------------------------------------

 NO OUTPUT CONTROL FOR STRESS PERIOD   12   TIME STEP    3
 
 SOLVING FOR HEAD 
                                                   Max.-Head-Change                         Max.-Flux-Residual
  Residual-Control   Outer-Iter.   Inner-Iter.     Column Row Layer    Maximum-Head-Change  Column Row Layer    Maximum-Flux-Residual          L2-NORM 
          0                 1           2             4    7     1       0.2174824344E-01       4    7    1         0.1146716632E+01      0.2335045183E+01
          0                 2           2             4    7     1      -0.2115521095E-02       4    7    1        -0.1146723426E+00      0.2334971229E+00
          0                 3           2             4    7     1       0.1440590456E-03       4    7    1         0.8027061031E-02      0.1634412253E-01
          0                 4           1             4    7     1      -0.5732244553E-05       4    7    1        -0.3283072799E-03      0.6683794169E-03

    ------------------------------------------------
       NWT REQUIRED            4 OUTER ITERATIONS 
       AND A TOTAL OF          7 INNER ITERATIONS.
    ------------------------------------------------

 NO OUTPUT CONTROL FOR STRESS PERIOD   12   TIME STEP    4
 
 SOLVING FOR HEAD 
                                                   Max.-Head-Change                         Max.-Flux-Residual
  Residual-Control   Outer-Iter.   Inner-Iter.     Column Row Layer    Maximum-Head-Change  Column Row Layer    Maximum-Flux-Residual          L2-NORM 
          0                 1           2             4    7     1       0.2143225759E-01       4    7    1         0.1130008387E+01      0.2303895422E+01
          0                 2           2             4    7     1      -0.2084784024E-02       4    7    1        -0.1130015002E+00      0.2303830643E+00
          0                 3           2             4    7     1       0.1419659674E-03       4    7    1         0.7910102165E-02      0.1612621964E-01
          0                 4           1             4    7     1      -0.5648959060E-05       4    7    1        -0.3235236588E-03      0.6603518104E-03

    ------------------------------------------------
       NWT REQUIRED            4 OUTER ITERATIONS 
       AND A TOTAL OF          7 INNER ITERATIONS.
    ------------------------------------------------

 NO OUTPUT CONTROL FOR STRESS PERIOD   12   TIME STEP    5
 
 SOLVING FOR HEAD 
                                                   Max.-Head-Change                         Max.-Flux-Residual
  Residual-Control   Outer-Iter.   Inner-Iter.     Column Row Layer    Maximum-Head-Change  Column Row Layer    Maximum-Flux-Residual          L2-NORM 
          0                 1           2             4    7     1       0.2112174534E-01       4    7    1         0.1113588171E+01      0.2273410628E+01
          0                 2           2             4    7     1      -0.2054579391E-02       4    7    1        -0.1113594612E+00      0.2273353407E+00
          0                 3           2             4    7     1       0.1399091464E-03       4    7    1         0.7795159555E-02      0.1591290142E-01
          0                 4           1             4    7     1      -0.5567116115E-05       4    7    1        -0.3188224866E-03      0.6508037971E-03

    ------------------------------------------------
       NWT REQUIRED            4 OUTER ITERATIONS 
       AND A TOTAL OF          7 INNER ITERATIONS.
    ------------------------------------------------

 NO OUTPUT CONTROL FOR STRESS PERIOD   12   TIME STEP    6
 
 SOLVING FOR HEAD 
                                                   Max.-Head-Change                         Max.-Flux-Residual
  Residual-Control   Outer-Iter.   Inner-Iter.     Column Row Layer    Maximum-Head-Change  Column Row Layer    Maximum-Flux-Residual          L2-NORM 
          0                 1           2             4    7     1       0.2081662693E-01       4    7    1         0.1097451752E+01      0.2243575451E+01
          0                 2           2             4    7     1      -0.2024899438E-02       4    7    1        -0.1097458022E+00      0.2243525300E+00
          0                 3           2             4    7     1       0.1378880543E-03       4    7    1         0.7682203549E-02      0.1570417780E-01
          0                 4           1             4    7     1      -0.5486694996E-05       4    7    1        -0.3142025880E-03      0.6422878145E-03

    ------------------------------------------------
       NWT REQUIRED            4 OUTER ITERATIONS 
       AND A TOTAL OF          7 INNER ITERATIONS.
    ------------------------------------------------

 NO OUTPUT CONTROL FOR STRESS PERIOD   12   TIME STEP    7
 
 SOLVING FOR HEAD 
                                                   Max.-Head-Change                         Max.-Flux-Residual
  Residual-Control   Outer-Iter.   Inner-Iter.     Column Row Layer    Maximum-Head-Change  Column Row Layer    Maximum-Flux-Residual          L2-NORM 
          0                 1           2             4    7     1       0.2051695040E-01       4    7    1         0.1081602334E+01      0.2214365929E+01
          0                 2           2             4    7     1      -0.1995748837E-02       4    7    1        -0.1081608438E+00      0.2214321630E+00
          0                 3           2             4    7     1       0.1359030089E-03       4    7    1         0.7571256556E-02      0.1549979368E-01
          0                 4           1             4    7     1      -0.5407708597E-05       4    7    1        -0.3096648643E-03      0.6339089162E-03

    ------------------------------------------------
       NWT REQUIRED            4 OUTER ITERATIONS 
       AND A TOTAL OF          7 INNER ITERATIONS.
    ------------------------------------------------

 NO OUTPUT CONTROL FOR STRESS PERIOD   12   TIME STEP    8
 
 SOLVING FOR HEAD 
                                                   Max.-Head-Change                         Max.-Flux-Residual
  Residual-Control   Outer-Iter.   Inner-Iter.     Column Row Layer    Maximum-Head-Change  Column Row Layer    Maximum-Flux-Residual          L2-NORM 
          0                 1           2             4    7     1       0.2022262952E-01       4    7    1         0.1066035069E+01      0.2185769460E+01
          0                 2           2             4    7     1      -0.1967119201E-02       4    7    1        -0.1066041012E+00      0.2185730722E+00
          0                 3           2             4    7     1       0.1339534389E-03       4    7    1         0.7462284670E-02      0.1529985656E-01
          0                 4           1             4    7     1      -0.5330133087E-05       4    7    1        -0.3052078962E-03      0.6263538719E-03

    ------------------------------------------------
       NWT REQUIRED            4 OUTER ITERATIONS 
       AND A TOTAL OF          7 INNER ITERATIONS.
    ------------------------------------------------

 NO OUTPUT CONTROL FOR STRESS PERIOD   12   TIME STEP    9
 
 SOLVING FOR HEAD 
                                                   Max.-Head-Change                         Max.-Flux-Residual
  Residual-Control   Outer-Iter.   Inner-Iter.     Column Row Layer    Maximum-Head-Change  Column Row Layer    Maximum-Flux-Residual          L2-NORM 
          0                 1           2             4    7     1       0.1993343616E-01       4    7    1         0.1050738146E+01      0.2157757676E+01
          0                 2           2             4    7     1      -0.1938988339E-02       4    7    1        -0.1050743931E+00      0.2157723343E+00
          0                 3           1             4    7     1       0.1320378355E-03       4    7    1         0.7355205224E-02      0.1510371143E-01
          0                 4           1             4    7     1      -0.5253910787E-05       4    7    1        -0.3008283429E-03      0.6177192656E-03

    ------------------------------------------------
       NWT REQUIRED            4 OUTER ITERATIONS 
       AND A TOTAL OF          6 INNER ITERATIONS.
    ------------------------------------------------

 NO OUTPUT CONTROL FOR STRESS PERIOD   12   TIME STEP   10
 
 SOLVING FOR HEAD 
                                                   Max.-Head-Change                         Max.-Flux-Residual
  Residual-Control   Outer-Iter.   Inner-Iter.     Column Row Layer    Maximum-Head-Change  Column Row Layer    Maximum-Flux-Residual          L2-NORM 
          0                 1           2             4    7     1       0.1964942232E-01       4    7    1         0.1035714418E+01      0.2130320304E+01
          0                 2           2             4    7     1      -0.1911361309E-02       4    7    1        -0.1035720048E+00      0.2130289797E+00
          0                 3           1             4    7     1       0.1301565395E-03       4    7    1         0.7250038155E-02      0.1491171239E-01
          0                 4           1             4    7     1      -0.5179052404E-05       4    7    1        -0.2965270032E-03      0.6098779331E-03

    ------------------------------------------------
       NWT REQUIRED            4 OUTER ITERATIONS 
       AND A TOTAL OF          6 INNER ITERATIONS.
    ------------------------------------------------

 NO OUTPUT CONTROL FOR STRESS PERIOD   12   TIME STEP   11
 
 SOLVING FOR HEAD 
                                                   Max.-Head-Change                         Max.-Flux-Residual
  Residual-Control   Outer-Iter.   Inner-Iter.     Column Row Layer    Maximum-Head-Change  Column Row Layer    Maximum-Flux-Residual          L2-NORM 
          0                 1           2             4    7     1       0.1937049431E-01       4    7    1         0.1020959240E+01      0.2103428319E+01
          0                 2           2             4    7     1      -0.1884228998E-02       4    7    1        -0.1020964720E+00      0.2103398283E+00
          0                 3           1             4    7     1       0.1283089313E-03       4    7    1         0.7146750924E-02      0.1472352406E-01
          0                 4           1             4    7     1      -0.5105534106E-05       4    7    1        -0.2923025406E-03      0.6021641723E-03

    ------------------------------------------------
       NWT REQUIRED            4 OUTER ITERATIONS 
       AND A TOTAL OF          6 INNER ITERATIONS.
    ------------------------------------------------

 NO OUTPUT CONTROL FOR STRESS PERIOD   12   TIME STEP   12
 
 SOLVING FOR HEAD 
                                                   Max.-Head-Change                         Max.-Flux-Residual
  Residual-Control   Outer-Iter.   Inner-Iter.     Column Row Layer    Maximum-Head-Change  Column Row Layer    Maximum-Flux-Residual          L2-NORM 
          0                 1           2             4    7     1       0.1909643019E-01       4    7    1         0.1006460413E+01      0.2077077835E+01
          0                 2           2             4    7     1      -0.1857569816E-02       4    7    1        -0.1006465747E+00      0.2077049644E+00
          0                 3           1             4    7     1       0.1264935422E-03       4    7    1         0.7045258232E-02      0.1453908356E-01
          0                 4           1             4    7     1      -0.5033297984E-05       4    7    1        -0.2881514783E-03      0.5946261776E-03

    ------------------------------------------------
       NWT REQUIRED            4 OUTER ITERATIONS 
       AND A TOTAL OF          6 INNER ITERATIONS.
    ------------------------------------------------

 NO OUTPUT CONTROL FOR STRESS PERIOD   12   TIME STEP   13
 
 SOLVING FOR HEAD 
                                                   Max.-Head-Change                         Max.-Flux-Residual
  Residual-Control   Outer-Iter.   Inner-Iter.     Column Row Layer    Maximum-Head-Change  Column Row Layer    Maximum-Flux-Residual          L2-NORM 
          0                 1           2             4    7     1       0.1882741300E-01       4    7    1         0.9922284542E+00      0.2051255824E+01
          0                 2           2             4    7     1      -0.1831401568E-02       4    7    1        -0.9922336461E-01      0.2051234205E+00
          0                 3           1             4    7     1       0.1247115836E-03       4    7    1         0.6945633602E-02      0.1435842959E-01
          0                 4           1             4    7     1      -0.4962392276E-05       4    7    1        -0.2840768334E-03      0.5872594266E-03

    ------------------------------------------------
       NWT REQUIRED            4 OUTER ITERATIONS 
       AND A TOTAL OF          6 INNER ITERATIONS.
    ------------------------------------------------

 NO OUTPUT CONTROL FOR STRESS PERIOD   12   TIME STEP   14
 
 SOLVING FOR HEAD 
                                                   Max.-Head-Change                         Max.-Flux-Residual
  Residual-Control   Outer-Iter.   Inner-Iter.     Column Row Layer    Maximum-Head-Change  Column Row Layer    Maximum-Flux-Residual          L2-NORM 
          0                 1           2             4    7     1       0.1856307426E-01       4    7    1         0.9782434879E+00      0.2025927688E+01
          0                 2           2             4    7     1      -0.1805688412E-02       4    7    1        -0.9782485414E-01      0.2025908654E+00
          0                 3           1             4    7     1       0.1229606154E-03       4    7    1         0.6847737975E-02      0.1418114183E-01
          0                 4           1             4    7     1      -0.4892719815E-05       4    7    1        -0.2800729005E-03      0.5799971503E-03

    ------------------------------------------------
       NWT REQUIRED            4 OUTER ITERATIONS 
       AND A TOTAL OF          6 INNER ITERATIONS.
    ------------------------------------------------

 NO OUTPUT CONTROL FOR STRESS PERIOD   12   TIME STEP   15
 
 SOLVING FOR HEAD 
                                                   Max.-Head-Change                         Max.-Flux-Residual
  Residual-Control   Outer-Iter.   Inner-Iter.     Column Row Layer    Maximum-Head-Change  Column Row Layer    Maximum-Flux-Residual          L2-NORM 
          0                 1           2             4    7     1       0.1830360315E-01       4    7    1         0.9645157757E+00      0.2001107954E+01
          0                 2           2             4    7     1      -0.1780448749E-02       4    7    1        -0.9645206943E-01      0.2001090896E+00
          0                 3           1             4    7     1       0.1212418894E-03       4    7    1         0.6751643118E-02      0.1400748106E-01
          0                 4           1             4    7     1      -0.4824330106E-05       4    7    1        -0.2761425972E-03      0.5729172998E-03

    ------------------------------------------------
       NWT REQUIRED            4 OUTER ITERATIONS 
       AND A TOTAL OF          6 INNER ITERATIONS.
    ------------------------------------------------

 NO OUTPUT CONTROL FOR STRESS PERIOD   12   TIME STEP   16
 
 SOLVING FOR HEAD 
                                                   Max.-Head-Change                         Max.-Flux-Residual
  Residual-Control   Outer-Iter.   Inner-Iter.     Column Row Layer    Maximum-Head-Change  Column Row Layer    Maximum-Flux-Residual          L2-NORM 
          0                 1           2             4    7     1       0.1804863484E-01       4    7    1         0.9510257592E+00      0.1976760606E+01
          0                 2           2             4    7     1      -0.1755647091E-02       4    7    1        -0.9510305462E-01      0.1976744954E+00
          0                 3           1             4    7     1       0.1195529907E-03       4    7    1         0.6657212173E-02      0.1383704160E-01
          0                 4           1             4    7     1      -0.4757127248E-05       4    7    1        -0.2722803838E-03      0.5659249721E-03

    ------------------------------------------------
       NWT REQUIRED            4 OUTER ITERATIONS 
       AND A TOTAL OF          6 INNER ITERATIONS.
    ------------------------------------------------

 NO OUTPUT CONTROL FOR STRESS PERIOD   12   TIME STEP   17
 
 SOLVING FOR HEAD 
                                                   Max.-Head-Change                         Max.-Flux-Residual
  Residual-Control   Outer-Iter.   Inner-Iter.     Column Row Layer    Maximum-Head-Change  Column Row Layer    Maximum-Flux-Residual          L2-NORM 
          0                 1           2             4    7     1       0.1779835219E-01       4    7    1         0.9377838905E+00      0.1952879694E+01
          0                 2           2             4    7     1      -0.1731301225E-02       4    7    1        -0.9377885502E-01      0.1952865755E+00
          0                 3           1             4    7     1       0.1178951292E-03       4    7    1         0.6564518278E-02      0.1366991294E-01
          0                 4           1             4    7     1      -0.4691159363E-05       4    7    1        -0.2684891865E-03      0.5591008812E-03

    ------------------------------------------------
       NWT REQUIRED            4 OUTER ITERATIONS 
       AND A TOTAL OF          6 INNER ITERATIONS.
    ------------------------------------------------

 NO OUTPUT CONTROL FOR STRESS PERIOD   12   TIME STEP   18
 
 SOLVING FOR HEAD 
                                                   Max.-Head-Change                         Max.-Flux-Residual
  Residual-Control   Outer-Iter.   Inner-Iter.     Column Row Layer    Maximum-Head-Change  Column Row Layer    Maximum-Flux-Residual          L2-NORM 
          0                 1           2             4    7     1       0.1755253020E-01       4    7    1         0.9247776242E+00      0.1929455822E+01
          0                 2           2             4    7     1      -0.1707389411E-02       4    7    1        -0.9247821596E-01      0.1929552227E+00
          0                 3           1             4    7     1       0.1162668253E-03       4    7    1         0.6473473628E-02      0.1350672962E-01
          0                 4           1             4    7     1      -0.4626367622E-05       4    7    1        -0.2647654617E-03      0.5524179017E-03

    ------------------------------------------------
       NWT REQUIRED            4 OUTER ITERATIONS 
       AND A TOTAL OF          6 INNER ITERATIONS.
    ------------------------------------------------

 NO OUTPUT CONTROL FOR STRESS PERIOD   12   TIME STEP   19
 
 SOLVING FOR HEAD 
                                                   Max.-Head-Change                         Max.-Flux-Residual
  Residual-Control   Outer-Iter.   Inner-Iter.     Column Row Layer    Maximum-Head-Change  Column Row Layer    Maximum-Flux-Residual          L2-NORM 
          0                 1           2             4    7     1       0.1731121415E-01       4    7    1         0.9120099717E+00      0.1906464922E+01
          0                 2           2             4    7     1      -0.1683915616E-02       4    7    1        -0.9120143863E-01      0.1906453339E+00
          0                 3           1             4    7     1       0.1146683483E-03       4    7    1         0.6384099284E-02      0.1334502461E-01
          0                 4           1             4    7     1      -0.4562762501E-05       4    7    1        -0.2611100356E-03      0.5457879390E-03

    ------------------------------------------------
       NWT REQUIRED            4 OUTER ITERATIONS 
       AND A TOTAL OF          6 INNER ITERATIONS.
    ------------------------------------------------

 NO OUTPUT CONTROL FOR STRESS PERIOD   12   TIME STEP   20
 
 SOLVING FOR HEAD 
                                                   Max.-Head-Change                         Max.-Flux-Residual
  Residual-Control   Outer-Iter.   Inner-Iter.     Column Row Layer    Maximum-Head-Change  Column Row Layer    Maximum-Flux-Residual          L2-NORM 
          0                 1           2             4    7     1       0.1707404439E-01       4    7    1         0.8994612749E+00      0.1883874438E+01
          0                 2           2             4    7     1      -0.1660845291E-02       4    7    1        -0.8994655720E-01      0.1883864255E+00
          0                 3           1             4    7     1       0.1130973469E-03       4    7    1         0.6296257661E-02      0.1318693339E-01
          0                 4           1             4    7     1      -0.4500251322E-05       4    7    1        -0.2575173314E-03      0.5393424925E-03

    ------------------------------------------------
       NWT REQUIRED            4 OUTER ITERATIONS 
       AND A TOTAL OF          6 INNER ITERATIONS.
    ------------------------------------------------

 NO OUTPUT CONTROL FOR STRESS PERIOD   12   TIME STEP   21
 
 SOLVING FOR HEAD 
                                                   Max.-Head-Change                         Max.-Flux-Residual
  Residual-Control   Outer-Iter.   Inner-Iter.     Column Row Layer    Maximum-Head-Change  Column Row Layer    Maximum-Flux-Residual          L2-NORM 
          0                 1           2             4    7     1       0.1684134242E-01       4    7    1         0.8871495795E+00      0.1861707534E+01
          0                 2           2             4    7     1      -0.1638209566E-02       4    7    1        -0.8871537626E-01      0.1861697887E+00
          0                 3           1             4    7     1       0.1115559398E-03       4    7    1         0.6210075064E-02      0.1303176742E-01
          0                 4           1             4    7     1      -0.4438917439E-05       4    7    1        -0.2539924667E-03      0.5330020394E-03

    ------------------------------------------------
       NWT REQUIRED            4 OUTER ITERATIONS 
       AND A TOTAL OF          6 INNER ITERATIONS.
    ------------------------------------------------

 NO OUTPUT CONTROL FOR STRESS PERIOD   12   TIME STEP   22
 
 SOLVING FOR HEAD 
                                                   Max.-Head-Change                         Max.-Flux-Residual
  Residual-Control   Outer-Iter.   Inner-Iter.     Column Row Layer    Maximum-Head-Change  Column Row Layer    Maximum-Flux-Residual          L2-NORM 
          0                 1           2             4    7     1       0.1661274415E-01       4    7    1         0.8750548458E+00      0.1839946698E+01
          0                 2           2             4    7     1      -0.1615973024E-02       4    7    1        -0.8750589177E-01      0.1839937970E+00
          0                 3           1             4    7     1       0.1100417149E-03       4    7    1         0.6125411217E-02      0.1287946795E-01
          0                 4           1             4    7     1      -0.4378664833E-05       4    7    1        -0.2505296925E-03      0.5267791436E-03

    ------------------------------------------------
       NWT REQUIRED            4 OUTER ITERATIONS 
       AND A TOTAL OF          6 INNER ITERATIONS.
    ------------------------------------------------

 NO OUTPUT CONTROL FOR STRESS PERIOD   12   TIME STEP   23
 
 SOLVING FOR HEAD 
                                                   Max.-Head-Change                         Max.-Flux-Residual
  Residual-Control   Outer-Iter.   Inner-Iter.     Column Row Layer    Maximum-Head-Change  Column Row Layer    Maximum-Flux-Residual          L2-NORM 
          0                 1           2             4    7     1       0.1638816877E-01       4    7    1         0.8631728832E+00      0.1818588173E+01
          0                 2           2             4    7     1      -0.1594127804E-02       4    7    1        -0.8631768472E-01      0.1818579953E+00
          0                 3           1             4    7     1       0.1085541376E-03       4    7    1         0.6042236785E-02      0.1272994891E-01
          0                 4           1             4    7     1      -0.4319472438E-05       4    7    1        -0.2471278362E-03      0.5206530505E-03

    ------------------------------------------------
       NWT REQUIRED            4 OUTER ITERATIONS 
       AND A TOTAL OF          6 INNER ITERATIONS.
    ------------------------------------------------

 NO OUTPUT CONTROL FOR STRESS PERIOD   12   TIME STEP   24
 
 SOLVING FOR HEAD 
                                                   Max.-Head-Change                         Max.-Flux-Residual
  Residual-Control   Outer-Iter.   Inner-Iter.     Column Row Layer    Maximum-Head-Change  Column Row Layer    Maximum-Flux-Residual          L2-NORM 
          0                 1           2             4    7     1       0.1616766876E-01       4    7    1         0.8515068454E+00      0.1797620506E+01
          0                 2           2             4    7     1      -0.1572679011E-02       4    7    1        -0.8515107047E-01      0.1797613009E+00
          0                 3           1             4    7     1       0.1070935559E-03       4    7    1         0.5960573850E-02      0.1258320694E-01
          0                 4           1             4    7     1      -0.4261354644E-05       4    7    1        -0.2437878215E-03      0.5146484217E-03

    ------------------------------------------------
       NWT REQUIRED            4 OUTER ITERATIONS 
       AND A TOTAL OF          6 INNER ITERATIONS.
    ------------------------------------------------

 NO OUTPUT CONTROL FOR STRESS PERIOD   12   TIME STEP   25
 
 SOLVING FOR HEAD 
                                                   Max.-Head-Change                         Max.-Flux-Residual
  Residual-Control   Outer-Iter.   Inner-Iter.     Column Row Layer    Maximum-Head-Change  Column Row Layer    Maximum-Flux-Residual          L2-NORM 
          0                 1           2             4    7     1       0.1595115755E-01       4    7    1         0.8400521102E+00      0.1777027865E+01
          0                 2           2             4    7     1      -0.1551618224E-02       4    7    1        -0.8400558677E-01      0.1777021169E+00
          0                 3           1             4    7     1       0.1056593962E-03       4    7    1         0.5880390061E-02      0.1243906837E-01
          0                 4           1             4    7     1      -0.4204288310E-05       4    7    1        -0.2405083139E-03      0.5087469005E-03

    ------------------------------------------------
       NWT REQUIRED            4 OUTER ITERATIONS 
       AND A TOTAL OF          6 INNER ITERATIONS.
    ------------------------------------------------

 NO OUTPUT CONTROL FOR STRESS PERIOD   12   TIME STEP   26
 
 SOLVING FOR HEAD 
                                                   Max.-Head-Change                         Max.-Flux-Residual
  Residual-Control   Outer-Iter.   Inner-Iter.     Column Row Layer    Maximum-Head-Change  Column Row Layer    Maximum-Flux-Residual          L2-NORM 
          0                 1           2             4    7     1       0.1573854657E-01       4    7    1         0.8288041891E+00      0.1756804671E+01
          0                 2           2             4    7     1      -0.1530936826E-02       4    7    1        -0.8288078475E-01      0.1756798101E+00
          0                 3           1             4    7     1       0.1042510712E-03       4    7    1         0.5801653977E-02      0.1229749913E-01
          0                 4           1             4    7     1      -0.4148249605E-05       4    7    1        -0.2372880076E-03      0.5029553576E-03

    ------------------------------------------------
       NWT REQUIRED            4 OUTER ITERATIONS 
       AND A TOTAL OF          6 INNER ITERATIONS.
    ------------------------------------------------

 NO OUTPUT CONTROL FOR STRESS PERIOD   12   TIME STEP   27
 
 SOLVING FOR HEAD 
                                                   Max.-Head-Change                         Max.-Flux-Residual
  Residual-Control   Outer-Iter.   Inner-Iter.     Column Row Layer    Maximum-Head-Change  Column Row Layer    Maximum-Flux-Residual          L2-NORM 
          0                 1           2             4    7     1       0.1552962423E-01       4    7    1         0.8177511439E+00      0.1736945596E+01
          0                 2           2             4    7     1      -0.1510614236E-02       4    7    1        -0.8177547059E-01      0.1736939554E+00
          0                 3           1             4    7     1       0.1028671790E-03       4    7    1         0.5724282036E-02      0.1215849303E-01
          0                 4           1             4    7     1      -0.4093183038E-05       4    7    1        -0.2341234660E-03      0.4972868260E-03

    ------------------------------------------------
       NWT REQUIRED            4 OUTER ITERATIONS 
       AND A TOTAL OF          6 INNER ITERATIONS.
    ------------------------------------------------

 NO OUTPUT CONTROL FOR STRESS PERIOD   12   TIME STEP   28
 
 SOLVING FOR HEAD 
                                                   Max.-Head-Change                         Max.-Flux-Residual
  Residual-Control   Outer-Iter.   Inner-Iter.     Column Row Layer    Maximum-Head-Change  Column Row Layer    Maximum-Flux-Residual          L2-NORM 
          0                 1           2             4    7     1       0.1532445051E-01       4    7    1         0.8068966949E+00      0.1717443612E+01
          0                 2           2             4    7     1      -0.1490656291E-02       4    7    1        -0.8069001636E-01      0.1717437743E+00
          0                 3           1             4    7     1       0.1015081186E-03       4    7    1         0.5648300301E-02      0.1202199349E-01
          0                 4           1             4    7     1      -0.4039104841E-05       4    7    1        -0.2310158204E-03      0.4916947842E-03

    ------------------------------------------------
       NWT REQUIRED            4 OUTER ITERATIONS 
       AND A TOTAL OF          6 INNER ITERATIONS.
    ------------------------------------------------

 NO OUTPUT CONTROL FOR STRESS PERIOD   12   TIME STEP   29
 
 SOLVING FOR HEAD 
                                                   Max.-Head-Change                         Max.-Flux-Residual
  Residual-Control   Outer-Iter.   Inner-Iter.     Column Row Layer    Maximum-Head-Change  Column Row Layer    Maximum-Flux-Residual          L2-NORM 
          0                 1           2             4    7     1       0.1512307135E-01       4    7    1         0.7962439530E+00      0.1698717023E+01
          0                 2           2             4    7     1      -0.1471067456E-02       4    7    1        -0.7962473309E-01      0.1698705213E+00
          0                 3           1             4    7     1       0.1001741931E-03       4    7    1         0.5573730545E-02      0.1189080021E-01
          0                 4           1             4    7     1      -0.3986026757E-05       4    7    1        -0.2279659097E-03      0.4863412744E-03

    ------------------------------------------------
       NWT REQUIRED            4 OUTER ITERATIONS 
       AND A TOTAL OF          6 INNER ITERATIONS.
    ------------------------------------------------

 NO OUTPUT CONTROL FOR STRESS PERIOD   12   TIME STEP   30



 STREAM LISTING     PERIOD     12   STEP       30

 LAYER ROW COL. STREAM  RCH.  FLOW INTO     FLOW TO   FLOW OUT OF   OVRLND.     DIRECT     STREAM       STREAM     STREAM     STREAM   STREAMBED  STREAMBED
                SEG.NO.  NO.  STRM. RCH.    AQUIFER    STRM. RCH.    RUNOFF     PRECIP       ET          HEAD       DEPTH      WIDTH   CONDCTNC.   GRADIENT

   1    1    1     1     1    9.5403E+00  1.4421E-01   9.3961E+00  0.000E+00  0.000E+00  0.000E+00  1.09393E+03  8.839E-01  8.251E+00  3.713E-02  1.295E+00
   1    2    2     1     2    9.3961E+00  2.2163E-01   9.1745E+00  0.000E+00  0.000E+00  0.000E+00  1.08894E+03  8.782E-01  8.164E+00  5.715E-02  1.293E+00
   1    3    3     1     3    9.1745E+00  1.8736E-01   8.9871E+00  0.000E+00  0.000E+00  0.000E+00  1.08329E+03  8.718E-01  8.065E+00  4.839E-02  1.291E+00
   1    3    4     1     4    8.9871E+00  1.7119E-01   8.8160E+00  0.000E+00  0.000E+00  0.000E+00  1.07827E+03  8.661E-01  7.978E+00  4.428E-02  1.289E+00
   1    4    5     2     1    6.8160E+00  2.7666E-01   6.5393E+00  0.000E+00  0.000E+00  0.000E+00  1.07248E+03  5.469E-01  1.200E+01  7.800E-02  1.182E+00
   1    5    6     2     2    6.5393E+00  2.1209E-01   6.3272E+00  0.000E+00  0.000E+00  0.000E+00  1.06704E+03  5.348E-01  1.200E+01  6.000E-02  1.178E+00
   1    6    6     2     3    6.3272E+00  2.1145E-01   6.1158E+00  0.000E+00  0.000E+00  0.000E+00  1.06232E+03  5.242E-01  1.200E+01  6.000E-02  1.175E+00
   1    7    6     2     4    6.1158E+00  2.1081E-01   5.9050E+00  0.000E+00  0.000E+00  0.000E+00  1.05759E+03  5.134E-01  1.200E+01  6.000E-02  1.171E+00
   1    8    6     2     5    5.9050E+00  2.1015E-01   5.6948E+00  0.000E+00  0.000E+00  0.000E+00  1.05286E+03  5.026E-01  1.200E+01  6.000E-02  1.168E+00
   1    3    5     3     1    2.0000E+00  2.8252E-01   1.7175E+00  0.000E+00  0.000E+00  0.000E+00  1.07555E+03  1.909E+00  9.636E+00  7.227E-02  1.955E+00
   1    3    6     3     2    1.7175E+00  2.4905E-01   1.4684E+00  0.000E+00  0.000E+00  0.000E+00  1.07264E+03  1.727E+00  8.909E+00  6.682E-02  1.864E+00
   1    3    7     3     3    1.4684E+00  1.9718E-01   1.2712E+00  0.000E+00  0.000E+00  0.000E+00  1.06987E+03  1.555E+00  8.218E+00  5.547E-02  1.777E+00
   1    4    8     3     4    1.2712E+00  2.2567E-01   1.0456E+00  0.000E+00  0.000E+00  0.000E+00  1.06682E+03  1.364E+00  7.455E+00  6.709E-02  1.682E+00
   1    5    8     3     5    1.0456E+00  1.5790E-01   8.8768E-01  0.000E+00  0.000E+00  0.000E+00  1.06362E+03  1.164E+00  6.655E+00  4.991E-02  1.582E+00
   1    6    8     3     6    8.8768E-01  5.5980E-02   8.3170E-01  0.000E+00  0.000E+00  0.000E+00  1.06158E+03  1.036E+00  6.145E+00  1.844E-02  1.518E+00
   1    5   10     4     1    1.0000E+01  9.0919E-02   9.9091E+00  0.000E+00  0.000E+00  0.000E+00  1.07836E+03  6.368E-01  1.000E+01  2.500E-02  1.212E+00
   1    5    9     4     2    9.9091E+00  1.8158E-01   9.7275E+00  0.000E+00  0.000E+00  0.000E+00  1.07154E+03  6.315E-01  1.000E+01  5.000E-02  1.211E+00
   1    6    8     4     3    9.7275E+00  1.2689E-01   9.6006E+00  0.000E+00  0.000E+00  0.000E+00  1.06381E+03  6.256E-01  1.000E+01  3.500E-02  1.209E+00
   1    6    8     5     1    1.0432E+01  2.2686E-01   1.0205E+01  0.000E+00  0.000E+00  0.000E+00  1.05868E+03  6.790E-01  1.542E+01  6.166E-02  1.226E+00
   1    7    7     5     2    1.0205E+01  2.7894E-01   9.9265E+00  0.000E+00  0.000E+00  0.000E+00  1.05417E+03  6.732E-01  1.519E+01  7.594E-02  1.224E+00
   1    8    7     5     3    9.9265E+00  1.9221E-01   9.7343E+00  0.000E+00  0.000E+00  0.000E+00  1.04992E+03  6.676E-01  1.497E+01  5.241E-02  1.223E+00
   1    8    6     5     4    9.7343E+00  1.3577E-01   9.5985E+00  0.000E+00  0.000E+00  0.000E+00  1.04691E+03  6.637E-01  1.482E+01  3.706E-02  1.221E+00
   1    9    6     6     1    1.5293E+01  2.3430E-01   1.5059E+01  0.000E+00  0.000E+00  0.000E+00  1.04363E+03  9.050E-01  1.200E+01  6.000E-02  1.302E+00
   1   10    7     6     2    1.5059E+01  2.3380E-01   1.4825E+01  0.000E+00  0.000E+00  0.000E+00  1.03908E+03  8.966E-01  1.200E+01  6.000E-02  1.299E+00
   1   11    7     6     3    1.4825E+01  2.3329E-01   1.4592E+01  0.000E+00  0.000E+00  0.000E+00  1.03452E+03  8.882E-01  1.200E+01  6.000E-02  1.296E+00
   1   12    7     6     4    1.4592E+01  2.3278E-01   1.4359E+01  0.000E+00  0.000E+00  0.000E+00  1.02997E+03  8.797E-01  1.200E+01  6.000E-02  1.293E+00
   1   13    7     6     5    1.4359E+01 -1.3134E-02   1.4372E+01  0.000E+00  0.000E+00  0.000E+00  1.02678E+03  8.757E-01  1.200E+01  2.400E-01 -1.824E-02
   1   14    9     7     1    1.5000E+02  1.3693E+00   1.4863E+02  0.000E+00  0.000E+00  0.000E+00  1.03987E+03  2.288E+00  5.529E+01  5.593E-01  8.161E-01
   1   13    8     7     2    1.4863E+02  1.9192E+00   1.4671E+02  0.000E+00  0.000E+00  0.000E+00  1.03478E+03  2.279E+00  5.525E+01  6.148E-01  1.041E+00
   1   13    7     7     3    1.4671E+02  1.5911E+00   1.4512E+02  0.000E+00  0.000E+00  0.000E+00  1.02969E+03  2.270E+00  5.521E+01  5.584E-01  9.498E-01
   1   13    6     8     1    1.5949E+02  9.7830E-01   1.5851E+02  0.000E+00  0.000E+00  0.000E+00  1.02475E+03  2.879E+00  4.175E+01  4.254E-01  7.665E-01
   1   13    5     8     2    1.5851E+02  2.3335E-01   1.5828E+02  0.000E+00  0.000E+00  0.000E+00  1.01850E+03  2.875E+00  4.169E+01  4.248E-01  1.831E-01
   1   13    4     8     3    1.5828E+02 -2.2380E+00   1.6052E+02  0.000E+00  0.000E+00  0.000E+00  1.01226E+03  2.882E+00  4.179E+01  4.258E+00 -1.752E-01
   1   13    3     8     4    1.6052E+02 -3.5493E+00   1.6407E+02  0.000E+00  0.000E+00  0.000E+00  1.00603E+03  2.901E+00  4.207E+01  4.287E+00 -2.760E-01
   1   13    2     8     5    1.6407E+02 -2.5565E+00   1.6662E+02  0.000E+00  0.000E+00  0.000E+00  9.99797E+02  2.922E+00  4.236E+01  4.317E+00 -1.974E-01
   1   13    1     8     6    1.6662E+02 -1.9752E+00   1.6860E+02  0.000E+00  0.000E+00  0.000E+00  9.94812E+02  2.937E+00  4.258E+01  2.603E+00 -2.529E-01
   1    8    6     9     1    0.0000E+00  0.0000E+00   0.0000E+00  0.000E+00  0.000E+00  0.000E+00  1.07875E+03  0.000E+00  4.000E+00  0.000E+00  1.000E+00
   1    8    5     9     2    0.0000E+00  0.0000E+00   0.0000E+00  0.000E+00  0.000E+00  0.000E+00  1.07825E+03  0.000E+00  4.000E+00  0.000E+00  1.000E+00





UNSATURATED ZONE PACKAGE VOLUMETRIC BUDGET FOR  TIME STEP    30 STRESS PERIOD   12
  ------------------------------------------------------------------------------



     CUMULATIVE VOLUMES      L**3       RATES FOR THIS TIME STEP      L**3/T
     ------------------                 ------------------------

           IN:                                      IN:
           ---                                      ---
        INFILTRATION =   429558376.3211          INFILTRATION =           0.8475

          OUT:                                     OUT:
          ----                                     ----
              UZF ET =   428041614.1591                UZF ET =           0.7500
        UZF RECHARGE =       73224.0000          UZF RECHARGE =       0.0000E+00

            IN - OUT =     1443538.1620              IN - OUT =       9.7500E-02

          STORAGE:                                 STORAGE:
          --------                                 --------
      STORAGE CHANGE =     1443541.2140        STORAGE CHANGE =       9.7500E-02

 PERCENT DISCREPANCY IS DIFFERENCE BETWEEN IN-OUT MINUS CHANGE IN STORAGE
 DIVIDED BY THE AVERAGE OF IN AND OUT TIMES 100

 PERCENT DISCREPANCY =           0.00     PERCENT DISCREPANCY =           0.00






1
  VOLUMETRIC BUDGET FOR AGRICULTURAL FIELDS AT  END OF TIME STEP   30, STRESS PERIOD  12
  ------------------------------------------------------------------------------

     CUMULATIVE VOLUMES      L**3       RATES FOR THIS TIME STEP      L**3/T
     ------------------                 ------------------------

           IN:                                      IN:
           ---                                      ---
           AG WELLS      =   178258384.0000             AG WELLS      =           0.0000
      DIVERSION SEGMENTS =   226725392.0000        DIVERSION SEGMENTS =           0.0000
           GW IRRIGATION =           0.0000             GW IRRIGATION =           0.0000
           SW IRRIGATION =           0.0000             SW IRRIGATION =           0.0000
        SYSTEM LOSSES GW =           0.0000          SYSTEM LOSSES GW =           0.0000
        SYSTEM LOSSES SW =           0.0000          SYSTEM LOSSES SW =           0.0000

                TOTAL IN =   404983776.0000                  TOTAL IN =           0.0000

          OUT:                                     OUT:
          ----                                     ----
           AG WELLS      =           0.0000             AG WELLS      =           0.0000
      DIVERSION SEGMENTS =           0.0000        DIVERSION SEGMENTS =           0.0000
           GW IRRIGATION =   178258384.0000             GW IRRIGATION =           0.0000
           SW IRRIGATION =   226729728.0000             SW IRRIGATION =           0.0000
        SYSTEM LOSSES GW =           0.0000          SYSTEM LOSSES GW =           0.0000
        SYSTEM LOSSES SW =           0.0000          SYSTEM LOSSES SW =           0.0000

               TOTAL OUT =   404988096.0000                 TOTAL OUT =           0.0000

                IN - OUT =       -4320.0000                  IN - OUT =           0.0000

     PERCENT DISCREPANCY =          -0.00         PERCENT DISCREPANCY =           0.00



1
  VOLUMETRIC BUDGET FOR ENTIRE MODEL AT END OF TIME STEP   30, STRESS PERIOD  12
  ------------------------------------------------------------------------------

     CUMULATIVE VOLUMES      L**3       RATES FOR THIS TIME STEP      L**3/T
     ------------------                 ------------------------

           IN:                                      IN:
           ---                                      ---
             STORAGE     =   246673072.0000               STORAGE     =           4.1797
       CONSTANT HEAD     =           0.0000         CONSTANT HEAD     =           0.0000
     HEAD DEP BOUNDS     =     8354596.5000       HEAD DEP BOUNDS     =           0.2880
      STREAM LEAKAGE     =   340979584.0000        STREAM LEAKAGE     =          11.2724
        UZF RECHARGE     =       73223.9531          UZF RECHARGE     =           0.0000
               GW ET     =           0.0000                 GW ET     =           0.0000
     SURFACE LEAKAGE     =           0.0000       SURFACE LEAKAGE     =           0.0000
           AG WELLS      =           0.0000             AG WELLS      =           0.0000

                TOTAL IN =   596080448.0000                  TOTAL IN =          15.7402

          OUT:                                     OUT:
          ----                                     ----
             STORAGE     =   109379352.0000               STORAGE     =           5.1204
       CONSTANT HEAD     =           0.0000         CONSTANT HEAD     =           0.0000
     HEAD DEP BOUNDS     =     8355457.0000       HEAD DEP BOUNDS     =           0.2877
      STREAM LEAKAGE     =   300090016.0000        STREAM LEAKAGE     =          10.3322
        UZF RECHARGE     =           0.0000          UZF RECHARGE     =           0.0000
               GW ET     =           0.0000                 GW ET     =           0.0000
     SURFACE LEAKAGE     =           0.0000       SURFACE LEAKAGE     =           0.0000
           AG WELLS      =   178258384.0000             AG WELLS      =           0.0000

               TOTAL OUT =   596083200.0000                 TOTAL OUT =          15.7402

                IN - OUT =       -2752.0000                  IN - OUT =       7.6294E-06

     PERCENT DISCREPANCY =          -0.00         PERCENT DISCREPANCY =           0.00






         TIME SUMMARY AT END OF TIME STEP   30 IN STRESS PERIOD   12
                    SECONDS     MINUTES      HOURS       DAYS        YEARS
                    -----------------------------------------------------------
   TIME STEP LENGTH  87667.      1461.1      24.352      1.0147     2.77799E-03
 STRESS PERIOD TIME 2.63000E+06  43833.      730.56      30.440     8.33397E-02
         TOTAL TIME 2.90163E+07 4.83606E+05  8060.1      335.84     0.91947    
1
1
                            STRESS PERIOD NO.   13, LENGTH =   2630000.    
                            -----------------------------------------------

                              NUMBER OF TIME STEPS =    30

                               MULTIPLIER FOR DELT =     1.000

                            INITIAL TIME STEP SIZE =   87666.66    

 REUSING NON-PARAMETER GHB CELLS FROM LAST STRESS PERIOD

      2 GHB CELLS

 REUSING STREAM SEGMENT DATA FROM LAST STRESS PERIOD



            AREAL INFILTRATION RATE
 READING ON UNIT   19 WITH FORMAT: (FREE)              

            1           2           3           4           5           6           7           8           9          10
 ........................................................................................................................
   1   1.0000E-10  2.0000E-10   0.000       0.000       0.000       0.000       0.000       0.000       0.000       0.000    
   2   2.0000E-10  1.0000E-10  2.0000E-10   0.000       0.000      8.0000E-10  8.0000E-10  5.0000E-10   0.000       0.000    
   3    0.000      5.0000E-10  1.0000E-10  1.0000E-10  8.0000E-10  8.0000E-10  5.0000E-10  5.0000E-10   0.000       0.000    
   4   8.0000E-10  5.0000E-10  1.0000E-10  1.0000E-10  1.0000E-10  1.0000E-10  1.0000E-10  1.0000E-10  2.0000E-10   0.000    
   5   8.0000E-10  5.0000E-10  1.0000E-10  1.0000E-10  1.0000E-10  1.0000E-10  1.0000E-10  1.0000E-10  1.0000E-10  1.0000E-10
   6   8.0000E-10  5.0000E-10  5.0000E-10  2.0000E-10  2.0000E-10  1.0000E-10  1.0000E-10  1.0000E-10  1.0000E-10  5.0000E-10
   7   8.0000E-10  5.0000E-10  5.0000E-10  2.0000E-10  2.0000E-10  1.0000E-10  1.0000E-10  2.0000E-10  2.0000E-10   0.000    
   8    0.000      5.0000E-10  5.0000E-10  2.0000E-10  2.0000E-10  1.0000E-10  1.0000E-10  2.0000E-10  5.0000E-10   0.000    
   9    0.000      5.0000E-10  5.0000E-10  2.0000E-10  2.0000E-10  1.0000E-10  1.0000E-10  2.0000E-10  5.0000E-10   0.000    
  10    0.000      5.0000E-10  5.0000E-10  2.0000E-10  2.0000E-10  1.0000E-10  1.0000E-10  2.0000E-10  5.0000E-10  8.0000E-10
  11    0.000      1.0000E-10  1.0000E-10  1.0000E-10  1.0000E-10  1.0000E-10  1.0000E-10  2.0000E-10  5.0000E-10   0.000    
  12   1.0000E-10  1.0000E-10  1.0000E-10  1.0000E-10  1.0000E-10  1.0000E-10  1.0000E-10  1.0000E-10  2.0000E-10   0.000    
  13   1.0000E-10  1.0000E-10  2.0000E-10  2.0000E-10  2.0000E-10  2.0000E-10  2.0000E-10  1.0000E-10  1.0000E-10   0.000    
  14    0.000      2.0000E-10  5.0000E-10  5.0000E-10  5.0000E-10  5.0000E-10  5.0000E-10  2.0000E-10  1.0000E-10   0.000    
  15    0.000       0.000      8.0000E-10  8.0000E-10  8.0000E-10  8.0000E-10   0.000       0.000       0.000       0.000    

                  ET RATE =  5.000000E-10

 USING ET EXTINCTION DEPTH FROM PREVIOUS STRESS PERIOD. CURRENT PERIOD IS:      13

 USING EXTINCTION WATER CONTENT FROM PREVIOUS STRESS PERIOD. CURRENT PERIOD IS:      13

 USING AIR ENTRY PRESSURE FROM PREVIOUS STRESS PERIOD. CURRENT PERIOD IS:      13

 USING ROOT PRESSURE HEAD FROM PREVIOUS STRESS PERIOD. CURRENT PERIOD IS:      13

 USING ROOT ACTIVITY FROM PREVIOUS STRESS PERIOD. CURRENT PERIOD IS:      13

 PROCESSING AG STRESS PERIOD DATA

 READING AG STRESS PERIOD DATA

 READING IRRIGATION SEGMENT

 READING IRRIGATION WELL

 READING SUPPLEMENTAL WELL

 END PROCESSING AG STRESS PERIOD DATA OPTIONS
 
 SOLVING FOR HEAD 
                                                   Max.-Head-Change                         Max.-Flux-Residual
  Residual-Control   Outer-Iter.   Inner-Iter.     Column Row Layer    Maximum-Head-Change  Column Row Layer    Maximum-Flux-Residual          L2-NORM 
          0                 1           2             4    7     1       0.1492512504E-01       4    7    1         0.7857732621E+00      0.1682383485E+01
          0                 2           2             4    7     1      -0.1451812547E-02       4    7    1        -0.7857765518E-01      0.1682322927E+00
          0                 3           1             4    7     1       0.9886300653E-04       4    7    1         0.5500435131E-02      0.1177565635E-01

    ------------------------------------------------
       NWT REQUIRED            3 OUTER ITERATIONS 
       AND A TOTAL OF          5 INNER ITERATIONS.
    ------------------------------------------------

 NO OUTPUT CONTROL FOR STRESS PERIOD   13   TIME STEP    1
 
 SOLVING FOR HEAD 
                                                   Max.-Head-Change                         Max.-Flux-Residual
  Residual-Control   Outer-Iter.   Inner-Iter.     Column Row Layer    Maximum-Head-Change  Column Row Layer    Maximum-Flux-Residual          L2-NORM 
          0                 1           2             4    7     1       0.1473060962E-01       4    7    1         0.7754844507E+00      0.1663742229E+01
          0                 2           2             4    7     1      -0.1432891373E-02       4    7    1        -0.7754876546E-01      0.1663687764E+00
          0                 3           1             4    7     1       0.9757454576E-04       4    7    1         0.5428412901E-02      0.1164530588E-01

    ------------------------------------------------
       NWT REQUIRED            3 OUTER ITERATIONS 
       AND A TOTAL OF          5 INNER ITERATIONS.
    ------------------------------------------------

 NO OUTPUT CONTROL FOR STRESS PERIOD   13   TIME STEP    2
 
 SOLVING FOR HEAD 
                                                   Max.-Head-Change                         Max.-Flux-Residual
  Residual-Control   Outer-Iter.   Inner-Iter.     Column Row Layer    Maximum-Head-Change  Column Row Layer    Maximum-Flux-Residual          L2-NORM 
          0                 1           2             4    7     1       0.1453965492E-01       4    7    1         0.7653843862E+00      0.1645439003E+01
          0                 2           2             4    7     1      -0.1414316565E-02       4    7    1        -0.7653875069E-01      0.1645390545E+00
          0                 3           1             4    7     1       0.9630967126E-04       4    7    1         0.5357711908E-02      0.1151722639E-01

    ------------------------------------------------
       NWT REQUIRED            3 OUTER ITERATIONS 
       AND A TOTAL OF          5 INNER ITERATIONS.
    ------------------------------------------------

 NO OUTPUT CONTROL FOR STRESS PERIOD   13   TIME STEP    3
 
 SOLVING FOR HEAD 
                                                   Max.-Head-Change                         Max.-Flux-Residual
  Residual-Control   Outer-Iter.   Inner-Iter.     Column Row Layer    Maximum-Head-Change  Column Row Layer    Maximum-Flux-Residual          L2-NORM 
          0                 1           2             4    7     1       0.1435191149E-01       4    7    1         0.7554542466E+00      0.1627458190E+01
          0                 2           2             4    7     1      -0.1396054130E-02       4    7    1        -0.7554572864E-01      0.1627414244E+00
          0                 3           1             4    7     1       0.9506606847E-04       4    7    1         0.5288200409E-02      0.1139148297E-01

    ------------------------------------------------
       NWT REQUIRED            3 OUTER ITERATIONS 
       AND A TOTAL OF          5 INNER ITERATIONS.
    ------------------------------------------------

 NO OUTPUT CONTROL FOR STRESS PERIOD   13   TIME STEP    4
 
 SOLVING FOR HEAD 
                                                   Max.-Head-Change                         Max.-Flux-Residual
  Residual-Control   Outer-Iter.   Inner-Iter.     Column Row Layer    Maximum-Head-Change  Column Row Layer    Maximum-Flux-Residual          L2-NORM 
          0                 1           2             4    7     1       0.1416758543E-01       4    7    1         0.7457052994E+00      0.1609794793E+01
          0                 2           2             4    7     1      -0.1378124114E-02       4    7    1        -0.7457082604E-01      0.1609755031E+00
          0                 3           1             4    7     1       0.9384510171E-04       4    7    1         0.5219957265E-02      0.1126792009E-01

    ------------------------------------------------
       NWT REQUIRED            3 OUTER ITERATIONS 
       AND A TOTAL OF          5 INNER ITERATIONS.
    ------------------------------------------------

 NO OUTPUT CONTROL FOR STRESS PERIOD   13   TIME STEP    5
 
 SOLVING FOR HEAD 
                                                   Max.-Head-Change                         Max.-Flux-Residual
  Residual-Control   Outer-Iter.   Inner-Iter.     Column Row Layer    Maximum-Head-Change  Column Row Layer    Maximum-Flux-Residual          L2-NORM 
          0                 1           2             4    7     1       0.1398646440E-01       4    7    1         0.7361261903E+00      0.1592440765E+01
          0                 2           2             4    7     1      -0.1360505864E-02       4    7    1        -0.7361290752E-01      0.1592404848E+00
          0                 3           1             4    7     1       0.9264536549E-04       4    7    1         0.5152903015E-02      0.1114651696E-01

    ------------------------------------------------
       NWT REQUIRED            3 OUTER ITERATIONS 
       AND A TOTAL OF          5 INNER ITERATIONS.
    ------------------------------------------------

 NO OUTPUT CONTROL FOR STRESS PERIOD   13   TIME STEP    6
 
 SOLVING FOR HEAD 
                                                   Max.-Head-Change                         Max.-Flux-Residual
  Residual-Control   Outer-Iter.   Inner-Iter.     Column Row Layer    Maximum-Head-Change  Column Row Layer    Maximum-Flux-Residual          L2-NORM 
          0                 1           2             4    7     1       0.1380861243E-01       4    7    1         0.7267206040E+00      0.1575384154E+01
          0                 2           2             4    7     1      -0.1343205607E-02       4    7    1        -0.7267234147E-01      0.1575351549E+00
          0                 3           1             4    7     1       0.9146728322E-04       4    7    1         0.5087063447E-02      0.1102713415E-01

    ------------------------------------------------
       NWT REQUIRED            3 OUTER ITERATIONS 
       AND A TOTAL OF          5 INNER ITERATIONS.
    ------------------------------------------------

 NO OUTPUT CONTROL FOR STRESS PERIOD   13   TIME STEP    7
 
 SOLVING FOR HEAD 
                                                   Max.-Head-Change                         Max.-Flux-Residual
  Residual-Control   Outer-Iter.   Inner-Iter.     Column Row Layer    Maximum-Head-Change  Column Row Layer    Maximum-Flux-Residual          L2-NORM 
          0                 1           2             4    7     1       0.1363368738E-01       4    7    1         0.7174698178E+00      0.1558621733E+01
          0                 2           2             4    7     1      -0.1326190063E-02       4    7    1        -0.7174725561E-01      0.1558592286E+00
          0                 3           1             4    7     1       0.9030858887E-04       4    7    1         0.5022307472E-02      0.1090985897E-01

    ------------------------------------------------
       NWT REQUIRED            3 OUTER ITERATIONS 
       AND A TOTAL OF          5 INNER ITERATIONS.
    ------------------------------------------------

 NO OUTPUT CONTROL FOR STRESS PERIOD   13   TIME STEP    8
 
 SOLVING FOR HEAD 
                                                   Max.-Head-Change                         Max.-Flux-Residual
  Residual-Control   Outer-Iter.   Inner-Iter.     Column Row Layer    Maximum-Head-Change  Column Row Layer    Maximum-Flux-Residual          L2-NORM 
          0                 1           2             4    7     1       0.1346190347E-01       4    7    1         0.7083854829E+00      0.1542145555E+01
          0                 2           2             4    7     1      -0.1309480069E-02       4    7    1        -0.7083881512E-01      0.1542118271E+00
          0                 3           1             4    7     1       0.8917070117E-04       4    7    1         0.4958716678E-02      0.1079457942E-01

    ------------------------------------------------
       NWT REQUIRED            3 OUTER ITERATIONS 
       AND A TOTAL OF          5 INNER ITERATIONS.
    ------------------------------------------------

 NO OUTPUT CONTROL FOR STRESS PERIOD   13   TIME STEP    9
 
 SOLVING FOR HEAD 
                                                   Max.-Head-Change                         Max.-Flux-Residual
  Residual-Control   Outer-Iter.   Inner-Iter.     Column Row Layer    Maximum-Head-Change  Column Row Layer    Maximum-Flux-Residual          L2-NORM 
          0                 1           2             4    7     1       0.1329318631E-01       4    7    1         0.6994640115E+00      0.1525949048E+01
          0                 2           2             4    7     1      -0.1293068390E-02       4    7    1        -0.6994666117E-01      0.1525923473E+00
          0                 3           1             4    7     1       0.8805312785E-04       4    7    1         0.4896265951E-02      0.1068119187E-01

    ------------------------------------------------
       NWT REQUIRED            3 OUTER ITERATIONS 
       AND A TOTAL OF          5 INNER ITERATIONS.
    ------------------------------------------------

 NO OUTPUT CONTROL FOR STRESS PERIOD   13   TIME STEP   10
 
 SOLVING FOR HEAD 
                                                   Max.-Head-Change                         Max.-Flux-Residual
  Residual-Control   Outer-Iter.   Inner-Iter.     Column Row Layer    Maximum-Head-Change  Column Row Layer    Maximum-Flux-Residual          L2-NORM 
          0                 1           2             4    7     1       0.1312733528E-01       4    7    1         0.6906941980E+00      0.1510026166E+01
          0                 2           2             4    7     1      -0.1276935509E-02       4    7    1        -0.6906967316E-01      0.1510003117E+00
          0                 3           1             4    7     1       0.8695453940E-04       4    7    1         0.4834876811E-02      0.1056979358E-01

    ------------------------------------------------
       NWT REQUIRED            3 OUTER ITERATIONS 
       AND A TOTAL OF          5 INNER ITERATIONS.
    ------------------------------------------------

 NO OUTPUT CONTROL FOR STRESS PERIOD   13   TIME STEP   11
 
 SOLVING FOR HEAD 
                                                   Max.-Head-Change                         Max.-Flux-Residual
  Residual-Control   Outer-Iter.   Inner-Iter.     Column Row Layer    Maximum-Head-Change  Column Row Layer    Maximum-Flux-Residual          L2-NORM 
          0                 1           2             4    7     1       0.1296442175E-01       4    7    1         0.6820803368E+00      0.1494370872E+01
          0                 2           2             4    7     1      -0.1261088370E-02       4    7    1        -0.6820828065E-01      0.1494349419E+00
          0                 3           1             4    7     1       0.8587540880E-04       4    7    1         0.4774579382E-02      0.1046021560E-01

    ------------------------------------------------
       NWT REQUIRED            3 OUTER ITERATIONS 
       AND A TOTAL OF          5 INNER ITERATIONS.
    ------------------------------------------------

 NO OUTPUT CONTROL FOR STRESS PERIOD   13   TIME STEP   12
 
 SOLVING FOR HEAD 
                                                   Max.-Head-Change                         Max.-Flux-Residual
  Residual-Control   Outer-Iter.   Inner-Iter.     Column Row Layer    Maximum-Head-Change  Column Row Layer    Maximum-Flux-Residual          L2-NORM 
          0                 1           2             4    7     1       0.1280424315E-01       4    7    1         0.6736114316E+00      0.1478966713E+01
          0                 2           2             4    7     1      -0.1245507267E-02       4    7    1        -0.6736138388E-01      0.1478946750E+00
          0                 3           1             4    7     1       0.8481439424E-04       4    7    1         0.4715296622E-02      0.1035242817E-01

    ------------------------------------------------
       NWT REQUIRED            3 OUTER ITERATIONS 
       AND A TOTAL OF          5 INNER ITERATIONS.
    ------------------------------------------------

 NO OUTPUT CONTROL FOR STRESS PERIOD   13   TIME STEP   13
 
 SOLVING FOR HEAD 
                                                   Max.-Head-Change                         Max.-Flux-Residual
  Residual-Control   Outer-Iter.   Inner-Iter.     Column Row Layer    Maximum-Head-Change  Column Row Layer    Maximum-Flux-Residual          L2-NORM 
          0                 1           2             4    7     1       0.1264674428E-01       4    7    1         0.6652843278E+00      0.1463812338E+01
          0                 2           2             4    7     1      -0.1230186832E-02       4    7    1        -0.6652866741E-01      0.1463794393E+00
          0                 3           1             4    7     1       0.8377113029E-04       4    7    1         0.4657006513E-02      0.1024638533E-01

    ------------------------------------------------
       NWT REQUIRED            3 OUTER ITERATIONS 
       AND A TOTAL OF          5 INNER ITERATIONS.
    ------------------------------------------------

 NO OUTPUT CONTROL FOR STRESS PERIOD   13   TIME STEP   14
 
 SOLVING FOR HEAD 
                                                   Max.-Head-Change                         Max.-Flux-Residual
  Residual-Control   Outer-Iter.   Inner-Iter.     Column Row Layer    Maximum-Head-Change  Column Row Layer    Maximum-Flux-Residual          L2-NORM 
          0                 1           2             4    7     1       0.1249213917E-01       4    7    1         0.6571108621E+00      0.1448917502E+01
          0                 2           2             4    7     1      -0.1215147883E-02       4    7    1        -0.6571131493E-01      0.1448900530E+00
          0                 3           1             4    7     1       0.8274703463E-04       4    7    1         0.4599791871E-02      0.1014213985E-01

    ------------------------------------------------
       NWT REQUIRED            3 OUTER ITERATIONS 
       AND A TOTAL OF          5 INNER ITERATIONS.
    ------------------------------------------------

 NO OUTPUT CONTROL FOR STRESS PERIOD   13   TIME STEP   15
 
 SOLVING FOR HEAD 
                                                   Max.-Head-Change                         Max.-Flux-Residual
  Residual-Control   Outer-Iter.   Inner-Iter.     Column Row Layer    Maximum-Head-Change  Column Row Layer    Maximum-Flux-Residual          L2-NORM 
          0                 1           2             4    7     1       0.1234008726E-01       4    7    1         0.6490727349E+00      0.1434257224E+01
          0                 2           2             4    7     1      -0.1200357294E-02       4    7    1        -0.6490749647E-01      0.1434241370E+00
          0                 3           1             4    7     1       0.8173985117E-04       4    7    1         0.4543524612E-02      0.1003954308E-01

    ------------------------------------------------
       NWT REQUIRED            3 OUTER ITERATIONS 
       AND A TOTAL OF          5 INNER ITERATIONS.
    ------------------------------------------------

 NO OUTPUT CONTROL FOR STRESS PERIOD   13   TIME STEP   16
 
 SOLVING FOR HEAD 
                                                   Max.-Head-Change                         Max.-Flux-Residual
  Residual-Control   Outer-Iter.   Inner-Iter.     Column Row Layer    Maximum-Head-Change  Column Row Layer    Maximum-Flux-Residual          L2-NORM 
          0                 1           2             4    7     1       0.1219067208E-01       4    7    1         0.6411743362E+00      0.1419844273E+01
          0                 2           2             4    7     1      -0.1185823188E-02       4    7    1        -0.6411765102E-01      0.1419829173E+00
          0                 3           1             4    7     1       0.8075013301E-04       4    7    1         0.4488235444E-02      0.9938627065E-02

    ------------------------------------------------
       NWT REQUIRED            3 OUTER ITERATIONS 
       AND A TOTAL OF          5 INNER ITERATIONS.
    ------------------------------------------------

 NO OUTPUT CONTROL FOR STRESS PERIOD   13   TIME STEP   17
 
 SOLVING FOR HEAD 
                                                   Max.-Head-Change                         Max.-Flux-Residual
  Residual-Control   Outer-Iter.   Inner-Iter.     Column Row Layer    Maximum-Head-Change  Column Row Layer    Maximum-Flux-Residual          L2-NORM 
          0                 1           2             4    7     1       0.1204383526E-01       4    7    1         0.6334126479E+00      0.1405655777E+01
          0                 2           2             4    7     1      -0.1171539891E-02       4    7    1        -0.6334147678E-01      0.1405641400E+00
          0                 3           1             4    7     1       0.7977749426E-04       4    7    1         0.4433903286E-02      0.9839327461E-02

    ------------------------------------------------
       NWT REQUIRED            3 OUTER ITERATIONS 
       AND A TOTAL OF          5 INNER ITERATIONS.
    ------------------------------------------------

 NO OUTPUT CONTROL FOR STRESS PERIOD   13   TIME STEP   18
 
 SOLVING FOR HEAD 
                                                   Max.-Head-Change                         Max.-Flux-Residual
  Residual-Control   Outer-Iter.   Inner-Iter.     Column Row Layer    Maximum-Head-Change  Column Row Layer    Maximum-Flux-Residual          L2-NORM 
          0                 1           2             4    7     1       0.1189938259E-01       4    7    1         0.6257772943E+00      0.1391694544E+01
          0                 2           2             4    7     1      -0.1157488507E-02       4    7    1        -0.6257793613E-01      0.1391679667E+00
          0                 3           1             4    7     1       0.7882064777E-04       4    7    1         0.4380455460E-02      0.9741637202E-02

    ------------------------------------------------
       NWT REQUIRED            3 OUTER ITERATIONS 
       AND A TOTAL OF          5 INNER ITERATIONS.
    ------------------------------------------------

 NO OUTPUT CONTROL FOR STRESS PERIOD   13   TIME STEP   19
 
 SOLVING FOR HEAD 
                                                   Max.-Head-Change                         Max.-Flux-Residual
  Residual-Control   Outer-Iter.   Inner-Iter.     Column Row Layer    Maximum-Head-Change  Column Row Layer    Maximum-Flux-Residual          L2-NORM 
          0                 1           2             4    7     1       0.1175740027E-01       4    7    1         0.6182729043E+00      0.1377956105E+01
          0                 2           2             4    7     1      -0.1143677423E-02       4    7    1        -0.6182749202E-01      0.1377943662E+00
          0                 3           1             4    7     1       0.7788016535E-04       4    7    1         0.4327924415E-02      0.9645485176E-02

    ------------------------------------------------
       NWT REQUIRED            3 OUTER ITERATIONS 
       AND A TOTAL OF          5 INNER ITERATIONS.
    ------------------------------------------------

 NO OUTPUT CONTROL FOR STRESS PERIOD   13   TIME STEP   20
 
 SOLVING FOR HEAD 
                                                   Max.-Head-Change                         Max.-Flux-Residual
  Residual-Control   Outer-Iter.   Inner-Iter.     Column Row Layer    Maximum-Head-Change  Column Row Layer    Maximum-Flux-Residual          L2-NORM 
          0                 1           2             4    7     1       0.1161783248E-01       4    7    1         0.6108965979E+00      0.1364431961E+01
          0                 2           2             4    7     1      -0.1130101208E-02       4    7    1        -0.6108985639E-01      0.1364419832E+00
          0                 3           1             4    7     1       0.7695567565E-04       4    7    1         0.4276289923E-02      0.9550823947E-02

    ------------------------------------------------
       NWT REQUIRED            3 OUTER ITERATIONS 
       AND A TOTAL OF          5 INNER ITERATIONS.
    ------------------------------------------------

 NO OUTPUT CONTROL FOR STRESS PERIOD   13   TIME STEP   21
 
 SOLVING FOR HEAD 
                                                   Max.-Head-Change                         Max.-Flux-Residual
  Residual-Control   Outer-Iter.   Inner-Iter.     Column Row Layer    Maximum-Head-Change  Column Row Layer    Maximum-Flux-Residual          L2-NORM 
          0                 1           2             4    7     1       0.1148062437E-01       4    7    1         0.6036454811E+00      0.1351116503E+01
          0                 2           2             4    7     1      -0.1116754529E-02       4    7    1        -0.6036473987E-01      0.1351105290E+00
          0                 3           1             4    7     1       0.7604681739E-04       4    7    1         0.4225531809E-02      0.9457616542E-02

    ------------------------------------------------
       NWT REQUIRED            3 OUTER ITERATIONS 
       AND A TOTAL OF          5 INNER ITERATIONS.
    ------------------------------------------------

 NO OUTPUT CONTROL FOR STRESS PERIOD   13   TIME STEP   22
 
 SOLVING FOR HEAD 
                                                   Max.-Head-Change                         Max.-Flux-Residual
  Residual-Control   Outer-Iter.   Inner-Iter.     Column Row Layer    Maximum-Head-Change  Column Row Layer    Maximum-Flux-Residual          L2-NORM 
          0                 1           2             4    7     1       0.1134585993E-01       4    7    1         0.5965240610E+00      0.1338019219E+01
          0                 2           2             4    7     1      -0.1103645554E-02       4    7    1        -0.5965259318E-01      0.1338008468E+00
          0                 3           1             4    7     1       0.7515414533E-04       4    7    1         0.4175681560E-02      0.9365985427E-02

    ------------------------------------------------
       NWT REQUIRED            3 OUTER ITERATIONS 
       AND A TOTAL OF          5 INNER ITERATIONS.
    ------------------------------------------------

 NO OUTPUT CONTROL FOR STRESS PERIOD   13   TIME STEP   23
 
 SOLVING FOR HEAD 
                                                   Max.-Head-Change                         Max.-Flux-Residual
  Residual-Control   Outer-Iter.   Inner-Iter.     Column Row Layer    Maximum-Head-Change  Column Row Layer    Maximum-Flux-Residual          L2-NORM 
          0                 1           2             4    7     1       0.1121321271E-01       4    7    1         0.5895146399E+00      0.1325116186E+01
          0                 2           2             4    7     1      -0.1090742529E-02       4    7    1        -0.5895164647E-01      0.1325105869E+00
          0                 3           1             4    7     1       0.7427549735E-04       4    7    1         0.4126615300E-02      0.9275632449E-02

    ------------------------------------------------
       NWT REQUIRED            3 OUTER ITERATIONS 
       AND A TOTAL OF          5 INNER ITERATIONS.
    ------------------------------------------------

 NO OUTPUT CONTROL FOR STRESS PERIOD   13   TIME STEP   24
 
 SOLVING FOR HEAD 
                                                   Max.-Head-Change                         Max.-Flux-Residual
  Residual-Control   Outer-Iter.   Inner-Iter.     Column Row Layer    Maximum-Head-Change  Column Row Layer    Maximum-Flux-Residual          L2-NORM 
          0                 1           2             4    7     1       0.1108277540E-01       4    7    1         0.5826223443E+00      0.1312419177E+01
          0                 2           2             4    7     1      -0.1078054470E-02       4    7    1        -0.5826241246E-01      0.1312408983E+00
          0                 3           1             4    7     1       0.7341148867E-04       4    7    1         0.4078368962E-02      0.9186759116E-02

    ------------------------------------------------
       NWT REQUIRED            3 OUTER ITERATIONS 
       AND A TOTAL OF          5 INNER ITERATIONS.
    ------------------------------------------------

 NO OUTPUT CONTROL FOR STRESS PERIOD   13   TIME STEP   25
 
 SOLVING FOR HEAD 
                                                   Max.-Head-Change                         Max.-Flux-Residual
  Residual-Control   Outer-Iter.   Inner-Iter.     Column Row Layer    Maximum-Head-Change  Column Row Layer    Maximum-Flux-Residual          L2-NORM 
          0                 1           2             4    7     1       0.1095449677E-01       4    7    1         0.5758446288E+00      0.1299911773E+01
          0                 2           2             4    7     1      -0.1065576393E-02       4    7    1        -0.5758463659E-01      0.1299902118E+00
          0                 3           1             4    7     1       0.7256177814E-04       4    7    1         0.4030924651E-02      0.9099225812E-02

    ------------------------------------------------
       NWT REQUIRED            3 OUTER ITERATIONS 
       AND A TOTAL OF          5 INNER ITERATIONS.
    ------------------------------------------------

 NO OUTPUT CONTROL FOR STRESS PERIOD   13   TIME STEP   26
 
 SOLVING FOR HEAD 
                                                   Max.-Head-Change                         Max.-Flux-Residual
  Residual-Control   Outer-Iter.   Inner-Iter.     Column Row Layer    Maximum-Head-Change  Column Row Layer    Maximum-Flux-Residual          L2-NORM 
          0                 1           2             4    7     1       0.1082833194E-01       4    7    1         0.5691788378E+00      0.1287599965E+01
          0                 2           2             4    7     1      -0.1053303934E-02       4    7    1        -0.5691805327E-01      0.1287590151E+00
          0                 3           1             4    7     1       0.7172606990E-04       4    7    1         0.3984263846E-02      0.9013004746E-02

    ------------------------------------------------
       NWT REQUIRED            3 OUTER ITERATIONS 
       AND A TOTAL OF          5 INNER ITERATIONS.
    ------------------------------------------------

 NO OUTPUT CONTROL FOR STRESS PERIOD   13   TIME STEP   27
 
 SOLVING FOR HEAD 
                                                   Max.-Head-Change                         Max.-Flux-Residual
  Residual-Control   Outer-Iter.   Inner-Iter.     Column Row Layer    Maximum-Head-Change  Column Row Layer    Maximum-Flux-Residual          L2-NORM 
          0                 1           2             4    7     1       0.1070423553E-01       4    7    1         0.5626226442E+00      0.1275476112E+01
          0                 2           2             4    7     1      -0.1041232676E-02       4    7    1        -0.5626242982E-01      0.1275467035E+00
          0                 3           1             4    7     1       0.7090406245E-04       4    7    1         0.3938370213E-02      0.8928168347E-02

    ------------------------------------------------
       NWT REQUIRED            3 OUTER ITERATIONS 
       AND A TOTAL OF          5 INNER ITERATIONS.
    ------------------------------------------------

 NO OUTPUT CONTROL FOR STRESS PERIOD   13   TIME STEP   28
 
 SOLVING FOR HEAD 
                                                   Max.-Head-Change                         Max.-Flux-Residual
  Residual-Control   Outer-Iter.   Inner-Iter.     Column Row Layer    Maximum-Head-Change  Column Row Layer    Maximum-Flux-Residual          L2-NORM 
          0                 1           2             4    7     1       0.1058229458E-01       4    7    1         0.5561810460E+00      0.1263537982E+01
          0                 2           2             4    7     1      -0.1029388259E-02       4    7    1        -0.5561826602E-01      0.1263811476E+00
          0                 3           1             4    7     1       0.7009750230E-04       4    7    1         0.3893278772E-02      0.8846585163E-02

    ------------------------------------------------
       NWT REQUIRED            3 OUTER ITERATIONS 
       AND A TOTAL OF          5 INNER ITERATIONS.
    ------------------------------------------------

 NO OUTPUT CONTROL FOR STRESS PERIOD   13   TIME STEP   29
 
 SOLVING FOR HEAD 
                                                   Max.-Head-Change                         Max.-Flux-Residual
  Residual-Control   Outer-Iter.   Inner-Iter.     Column Row Layer    Maximum-Head-Change  Column Row Layer    Maximum-Flux-Residual          L2-NORM 
          0                 1           2             4    7     1       0.1046210788E-01       4    7    1         0.5498355893E+00      0.1251753636E+01
          0                 2           2             4    7     1      -0.1017680149E-02       4    7    1        -0.5498371658E-01      0.1251745139E+00
          0                 3           1             4    7     1       0.6930022437E-04       4    7    1         0.3848860339E-02      0.8762118393E-02

    ------------------------------------------------
       NWT REQUIRED            3 OUTER ITERATIONS 
       AND A TOTAL OF          5 INNER ITERATIONS.
    ------------------------------------------------

 NO OUTPUT CONTROL FOR STRESS PERIOD   13   TIME STEP   30



 STREAM LISTING     PERIOD     13   STEP       30

 LAYER ROW COL. STREAM  RCH.  FLOW INTO     FLOW TO   FLOW OUT OF   OVRLND.     DIRECT     STREAM       STREAM     STREAM     STREAM   STREAMBED  STREAMBED
                SEG.NO.  NO.  STRM. RCH.    AQUIFER    STRM. RCH.    RUNOFF     PRECIP       ET          HEAD       DEPTH      WIDTH   CONDCTNC.   GRADIENT

   1    1    1     1     1    8.6249E+00  1.3546E-01   8.4895E+00  0.000E+00  0.000E+00  0.000E+00  1.09390E+03  8.549E-01  7.809E+00  3.514E-02  1.285E+00
   1    2    2     1     2    8.4895E+00  2.0809E-01   8.2814E+00  0.000E+00  0.000E+00  0.000E+00  1.08891E+03  8.492E-01  7.723E+00  5.406E-02  1.283E+00
   1    3    3     1     3    8.2814E+00  1.7583E-01   8.1056E+00  0.000E+00  0.000E+00  0.000E+00  1.08326E+03  8.427E-01  7.626E+00  4.576E-02  1.281E+00
   1    3    4     1     4    8.1056E+00  1.6058E-01   7.9450E+00  0.000E+00  0.000E+00  0.000E+00  1.07824E+03  8.369E-01  7.541E+00  4.185E-02  1.279E+00
   1    4    5     2     1    5.9450E+00  2.7323E-01   5.6717E+00  0.000E+00  0.000E+00  0.000E+00  1.07244E+03  5.030E-01  1.200E+01  7.800E-02  1.168E+00
   1    5    6     2     2    5.6717E+00  2.0942E-01   5.4623E+00  0.000E+00  0.000E+00  0.000E+00  1.06700E+03  4.904E-01  1.200E+01  6.000E-02  1.163E+00
   1    6    6     2     3    5.4623E+00  2.0875E-01   5.2536E+00  0.000E+00  0.000E+00  0.000E+00  1.06227E+03  4.792E-01  1.200E+01  6.000E-02  1.160E+00
   1    7    6     2     4    5.2536E+00  2.0808E-01   5.0455E+00  0.000E+00  0.000E+00  0.000E+00  1.05754E+03  4.680E-01  1.200E+01  6.000E-02  1.156E+00
   1    8    6     2     5    5.0455E+00  2.0739E-01   4.8381E+00  0.000E+00  0.000E+00  0.000E+00  1.05282E+03  4.565E-01  1.200E+01  6.000E-02  1.152E+00
   1    3    5     3     1    2.0000E+00  2.8252E-01   1.7175E+00  0.000E+00  0.000E+00  0.000E+00  1.07555E+03  1.909E+00  9.636E+00  7.227E-02  1.955E+00
   1    3    6     3     2    1.7175E+00  2.4905E-01   1.4684E+00  0.000E+00  0.000E+00  0.000E+00  1.07264E+03  1.727E+00  8.909E+00  6.682E-02  1.864E+00
   1    3    7     3     3    1.4684E+00  1.9718E-01   1.2712E+00  0.000E+00  0.000E+00  0.000E+00  1.06987E+03  1.555E+00  8.218E+00  5.547E-02  1.777E+00
   1    4    8     3     4    1.2712E+00  2.2567E-01   1.0456E+00  0.000E+00  0.000E+00  0.000E+00  1.06682E+03  1.364E+00  7.455E+00  6.709E-02  1.682E+00
   1    5    8     3     5    1.0456E+00  1.5790E-01   8.8768E-01  0.000E+00  0.000E+00  0.000E+00  1.06362E+03  1.164E+00  6.655E+00  4.991E-02  1.582E+00
   1    6    8     3     6    8.8768E-01  5.5980E-02   8.3170E-01  0.000E+00  0.000E+00  0.000E+00  1.06158E+03  1.036E+00  6.145E+00  1.844E-02  1.518E+00
   1    5   10     4     1    1.0000E+01  9.0919E-02   9.9091E+00  0.000E+00  0.000E+00  0.000E+00  1.07836E+03  6.368E-01  1.000E+01  2.500E-02  1.212E+00
   1    5    9     4     2    9.9091E+00  1.8158E-01   9.7275E+00  0.000E+00  0.000E+00  0.000E+00  1.07154E+03  6.315E-01  1.000E+01  5.000E-02  1.211E+00
   1    6    8     4     3    9.7275E+00  1.2689E-01   9.6006E+00  0.000E+00  0.000E+00  0.000E+00  1.06381E+03  6.256E-01  1.000E+01  3.500E-02  1.209E+00
   1    6    8     5     1    1.0432E+01  2.2686E-01   1.0205E+01  0.000E+00  0.000E+00  0.000E+00  1.05868E+03  6.790E-01  1.542E+01  6.166E-02  1.226E+00
   1    7    7     5     2    1.0205E+01  2.7894E-01   9.9265E+00  0.000E+00  0.000E+00  0.000E+00  1.05417E+03  6.732E-01  1.519E+01  7.594E-02  1.224E+00
   1    8    7     5     3    9.9265E+00  1.9221E-01   9.7343E+00  0.000E+00  0.000E+00  0.000E+00  1.04992E+03  6.676E-01  1.497E+01  5.241E-02  1.223E+00
   1    8    6     5     4    9.7343E+00  1.3577E-01   9.5985E+00  0.000E+00  0.000E+00  0.000E+00  1.04691E+03  6.637E-01  1.482E+01  3.706E-02  1.221E+00
   1    9    6     6     1    1.4437E+01  2.3244E-01   1.4204E+01  0.000E+00  0.000E+00  0.000E+00  1.04360E+03  8.741E-01  1.200E+01  6.000E-02  1.291E+00
   1   10    7     6     2    1.4204E+01  2.3193E-01   1.3972E+01  0.000E+00  0.000E+00  0.000E+00  1.03905E+03  8.655E-01  1.200E+01  6.000E-02  1.289E+00
   1   11    7     6     3    1.3972E+01  2.3142E-01   1.3741E+01  0.000E+00  0.000E+00  0.000E+00  1.03449E+03  8.570E-01  1.200E+01  6.000E-02  1.286E+00
   1   12    7     6     4    1.3741E+01  2.3090E-01   1.3510E+01  0.000E+00  0.000E+00  0.000E+00  1.02994E+03  8.484E-01  1.200E+01  6.000E-02  1.283E+00
   1   13    7     6     5    1.3510E+01 -1.8435E-02   1.3528E+01  0.000E+00  0.000E+00  0.000E+00  1.02675E+03  8.444E-01  1.200E+01  2.400E-01 -2.560E-02
   1   14    9     7     1    1.5000E+02  1.3696E+00   1.4863E+02  0.000E+00  0.000E+00  0.000E+00  1.03987E+03  2.288E+00  5.529E+01  5.593E-01  8.163E-01
   1   13    8     7     2    1.4863E+02  1.9201E+00   1.4671E+02  0.000E+00  0.000E+00  0.000E+00  1.03478E+03  2.279E+00  5.525E+01  6.148E-01  1.041E+00
   1   13    7     7     3    1.4671E+02  1.5962E+00   1.4511E+02  0.000E+00  0.000E+00  0.000E+00  1.02969E+03  2.269E+00  5.521E+01  5.584E-01  9.529E-01
   1   13    6     8     1    1.5864E+02  9.7985E-01   1.5766E+02  0.000E+00  0.000E+00  0.000E+00  1.02475E+03  2.873E+00  4.166E+01  4.246E-01  7.693E-01
   1   13    5     8     2    1.5766E+02  2.3716E-01   1.5743E+02  0.000E+00  0.000E+00  0.000E+00  1.01849E+03  2.869E+00  4.160E+01  4.239E-01  1.865E-01
   1   13    4     8     3    1.5743E+02 -2.2163E+00   1.5964E+02  0.000E+00  0.000E+00  0.000E+00  1.01225E+03  2.876E+00  4.170E+01  4.249E+00 -1.739E-01
   1   13    3     8     4    1.5964E+02 -3.5366E+00   1.6318E+02  0.000E+00  0.000E+00  0.000E+00  1.00602E+03  2.895E+00  4.198E+01  4.278E+00 -2.756E-01
   1   13    2     8     5    1.6318E+02 -2.5503E+00   1.6573E+02  0.000E+00  0.000E+00  0.000E+00  9.99791E+02  2.916E+00  4.228E+01  4.308E+00 -1.973E-01
   1   13    1     8     6    1.6573E+02 -1.9729E+00   1.6770E+02  0.000E+00  0.000E+00  0.000E+00  9.94806E+02  2.931E+00  4.249E+01  2.598E+00 -2.531E-01
   1    8    6     9     1    0.0000E+00  0.0000E+00   0.0000E+00  0.000E+00  0.000E+00  0.000E+00  1.07875E+03  0.000E+00  4.000E+00  0.000E+00  1.000E+00
   1    8    5     9     2    0.0000E+00  0.0000E+00   0.0000E+00  0.000E+00  0.000E+00  0.000E+00  1.07825E+03  0.000E+00  4.000E+00  0.000E+00  1.000E+00





UNSATURATED ZONE PACKAGE VOLUMETRIC BUDGET FOR  TIME STEP    30 STRESS PERIOD   13
  ------------------------------------------------------------------------------



     CUMULATIVE VOLUMES      L**3       RATES FOR THIS TIME STEP      L**3/T
     ------------------                 ------------------------

           IN:                                      IN:
           ---                                      ---
        INFILTRATION =   431787301.1938          INFILTRATION =           0.8475

          OUT:                                     OUT:
          ----                                     ----
              UZF ET =   430014114.0250                UZF ET =           0.7500
        UZF RECHARGE =       73224.0000          UZF RECHARGE =       0.0000E+00

            IN - OUT =     1699963.1688              IN - OUT =       9.7500E-02

          STORAGE:                                 STORAGE:
          --------                                 --------
      STORAGE CHANGE =     1699966.2444        STORAGE CHANGE =       9.7500E-02

 PERCENT DISCREPANCY IS DIFFERENCE BETWEEN IN-OUT MINUS CHANGE IN STORAGE
 DIVIDED BY THE AVERAGE OF IN AND OUT TIMES 100

 PERCENT DISCREPANCY =           0.00     PERCENT DISCREPANCY =           0.00






1
  VOLUMETRIC BUDGET FOR AGRICULTURAL FIELDS AT  END OF TIME STEP   30, STRESS PERIOD  13
  ------------------------------------------------------------------------------

     CUMULATIVE VOLUMES      L**3       RATES FOR THIS TIME STEP      L**3/T
     ------------------                 ------------------------

           IN:                                      IN:
           ---                                      ---
           AG WELLS      =   178258384.0000             AG WELLS      =           0.0000
      DIVERSION SEGMENTS =   226725392.0000        DIVERSION SEGMENTS =           0.0000
           GW IRRIGATION =           0.0000             GW IRRIGATION =           0.0000
           SW IRRIGATION =           0.0000             SW IRRIGATION =           0.0000
        SYSTEM LOSSES GW =           0.0000          SYSTEM LOSSES GW =           0.0000
        SYSTEM LOSSES SW =           0.0000          SYSTEM LOSSES SW =           0.0000

                TOTAL IN =   404983776.0000                  TOTAL IN =           0.0000

          OUT:                                     OUT:
          ----                                     ----
           AG WELLS      =           0.0000             AG WELLS      =           0.0000
      DIVERSION SEGMENTS =           0.0000        DIVERSION SEGMENTS =           0.0000
           GW IRRIGATION =   178258384.0000             GW IRRIGATION =           0.0000
           SW IRRIGATION =   226729728.0000             SW IRRIGATION =           0.0000
        SYSTEM LOSSES GW =           0.0000          SYSTEM LOSSES GW =           0.0000
        SYSTEM LOSSES SW =           0.0000          SYSTEM LOSSES SW =           0.0000

               TOTAL OUT =   404988096.0000                 TOTAL OUT =           0.0000

                IN - OUT =       -4320.0000                  IN - OUT =           0.0000

     PERCENT DISCREPANCY =          -0.00         PERCENT DISCREPANCY =           0.00



1
  VOLUMETRIC BUDGET FOR ENTIRE MODEL AT END OF TIME STEP   30, STRESS PERIOD  13
  ------------------------------------------------------------------------------

     CUMULATIVE VOLUMES      L**3       RATES FOR THIS TIME STEP      L**3/T
     ------------------                 ------------------------

           IN:                                      IN:
           ---                                      ---
             STORAGE     =   256346816.0000               STORAGE     =           3.1795
       CONSTANT HEAD     =           0.0000         CONSTANT HEAD     =           0.0000
     HEAD DEP BOUNDS     =     9112169.0000       HEAD DEP BOUNDS     =           0.2881
      STREAM LEAKAGE     =   370458464.0000        STREAM LEAKAGE     =          11.2179
        UZF RECHARGE     =       73223.9531          UZF RECHARGE     =           0.0000
               GW ET     =           0.0000                 GW ET     =           0.0000
     SURFACE LEAKAGE     =           0.0000       SURFACE LEAKAGE     =           0.0000
           AG WELLS      =           0.0000             AG WELLS      =           0.0000

                TOTAL IN =   635990656.0000                  TOTAL IN =          14.6855

          OUT:                                     OUT:
          ----                                     ----
             STORAGE     =   121353360.0000               STORAGE     =           4.1037
       CONSTANT HEAD     =           0.0000         CONSTANT HEAD     =           0.0000
     HEAD DEP BOUNDS     =     9111708.0000       HEAD DEP BOUNDS     =           0.2875
      STREAM LEAKAGE     =   327270720.0000        STREAM LEAKAGE     =          10.2945
        UZF RECHARGE     =           0.0000          UZF RECHARGE     =           0.0000
               GW ET     =           0.0000                 GW ET     =           0.0000
     SURFACE LEAKAGE     =           0.0000       SURFACE LEAKAGE     =           0.0000
           AG WELLS      =   178258384.0000             AG WELLS      =           0.0000

               TOTAL OUT =   635994176.0000                 TOTAL OUT =          14.6857

                IN - OUT =       -3520.0000                  IN - OUT =      -2.6035E-04

     PERCENT DISCREPANCY =          -0.00         PERCENT DISCREPANCY =          -0.00






         TIME SUMMARY AT END OF TIME STEP   30 IN STRESS PERIOD   13
                    SECONDS     MINUTES      HOURS       DAYS        YEARS
                    -----------------------------------------------------------
   TIME STEP LENGTH  87667.      1461.1      24.352      1.0147     2.77799E-03
 STRESS PERIOD TIME 2.63000E+06  43833.      730.56      30.440     8.33397E-02
         TOTAL TIME 3.16463E+07 5.27439E+05  8790.6      366.28      1.0028    
1
1
                            STRESS PERIOD NO.   14, LENGTH =   2630000.    
                            -----------------------------------------------

                              NUMBER OF TIME STEPS =    30

                               MULTIPLIER FOR DELT =     1.000

                            INITIAL TIME STEP SIZE =   87666.66    

 REUSING NON-PARAMETER GHB CELLS FROM LAST STRESS PERIOD

      2 GHB CELLS

 REUSING STREAM SEGMENT DATA FROM LAST STRESS PERIOD



            AREAL INFILTRATION RATE
 READING ON UNIT   19 WITH FORMAT: (FREE)              

            1           2           3           4           5           6           7           8           9          10
 ........................................................................................................................
   1   1.0000E-10  2.0000E-10   0.000       0.000       0.000       0.000       0.000       0.000       0.000       0.000    
   2   2.0000E-10  1.0000E-10  2.0000E-10   0.000       0.000      8.0000E-10  8.0000E-10  5.0000E-10   0.000       0.000    
   3    0.000      5.0000E-10  1.0000E-10  1.0000E-10  8.0000E-10  8.0000E-10  5.0000E-10  5.0000E-10   0.000       0.000    
   4   8.0000E-10  5.0000E-10  1.0000E-10  1.0000E-10  1.0000E-10  1.0000E-10  1.0000E-10  1.0000E-10  2.0000E-10   0.000    
   5   8.0000E-10  5.0000E-10  1.0000E-10  1.0000E-10  1.0000E-10  1.0000E-10  1.0000E-10  1.0000E-10  1.0000E-10  1.0000E-10
   6   8.0000E-10  5.0000E-10  5.0000E-10  2.0000E-10  2.0000E-10  1.0000E-10  1.0000E-10  1.0000E-10  1.0000E-10  5.0000E-10
   7   8.0000E-10  5.0000E-10  5.0000E-10  2.0000E-10  2.0000E-10  1.0000E-10  1.0000E-10  2.0000E-10  2.0000E-10   0.000    
   8    0.000      5.0000E-10  5.0000E-10  2.0000E-10  2.0000E-10  1.0000E-10  1.0000E-10  2.0000E-10  5.0000E-10   0.000    
   9    0.000      5.0000E-10  5.0000E-10  2.0000E-10  2.0000E-10  1.0000E-10  1.0000E-10  2.0000E-10  5.0000E-10   0.000    
  10    0.000      5.0000E-10  5.0000E-10  2.0000E-10  2.0000E-10  1.0000E-10  1.0000E-10  2.0000E-10  5.0000E-10  8.0000E-10
  11    0.000      1.0000E-10  1.0000E-10  1.0000E-10  1.0000E-10  1.0000E-10  1.0000E-10  2.0000E-10  5.0000E-10   0.000    
  12   1.0000E-10  1.0000E-10  1.0000E-10  1.0000E-10  1.0000E-10  1.0000E-10  1.0000E-10  1.0000E-10  2.0000E-10   0.000    
  13   1.0000E-10  1.0000E-10  2.0000E-10  2.0000E-10  2.0000E-10  2.0000E-10  2.0000E-10  1.0000E-10  1.0000E-10   0.000    
  14    0.000      2.0000E-10  5.0000E-10  5.0000E-10  5.0000E-10  5.0000E-10  5.0000E-10  2.0000E-10  1.0000E-10   0.000    
  15    0.000       0.000      8.0000E-10  8.0000E-10  8.0000E-10  8.0000E-10   0.000       0.000       0.000       0.000    

                  ET RATE =  5.000000E-10

 USING ET EXTINCTION DEPTH FROM PREVIOUS STRESS PERIOD. CURRENT PERIOD IS:      14

 USING EXTINCTION WATER CONTENT FROM PREVIOUS STRESS PERIOD. CURRENT PERIOD IS:      14

 USING AIR ENTRY PRESSURE FROM PREVIOUS STRESS PERIOD. CURRENT PERIOD IS:      14

 USING ROOT PRESSURE HEAD FROM PREVIOUS STRESS PERIOD. CURRENT PERIOD IS:      14

 USING ROOT ACTIVITY FROM PREVIOUS STRESS PERIOD. CURRENT PERIOD IS:      14

 PROCESSING AG STRESS PERIOD DATA

 READING AG STRESS PERIOD DATA

 READING IRRIGATION SEGMENT

 READING IRRIGATION WELL

 READING SUPPLEMENTAL WELL

 END PROCESSING AG STRESS PERIOD DATA OPTIONS
 
 SOLVING FOR HEAD 
                                                   Max.-Head-Change                         Max.-Flux-Residual
  Residual-Control   Outer-Iter.   Inner-Iter.     Column Row Layer    Maximum-Head-Change  Column Row Layer    Maximum-Flux-Residual          L2-NORM 
          0                 1           2             4    7     1       0.1034395907E-01       4    7    1         0.5435976154E+00      0.1241652230E+01
          0                 2           2             4    7     1      -0.1006187436E-02       4    7    1        -0.5435991548E-01      0.1241614300E+00
          0                 3           1             4    7     1       0.6851761319E-04       4    7    1         0.3805194261E-02      0.8690877705E-02

    ------------------------------------------------
       NWT REQUIRED            3 OUTER ITERATIONS 
       AND A TOTAL OF          5 INNER ITERATIONS.
    ------------------------------------------------

 NO OUTPUT CONTROL FOR STRESS PERIOD   14   TIME STEP    1
 
 SOLVING FOR HEAD 
                                                   Max.-Head-Change                         Max.-Flux-Residual
  Residual-Control   Outer-Iter.   Inner-Iter.     Column Row Layer    Maximum-Head-Change  Column Row Layer    Maximum-Flux-Residual          L2-NORM 
          0                 1           2             4    7     1       0.1022764098E-01       4    7    1         0.5374570389E+00      0.1233589827E+01
          0                 2           2             4    7     1      -0.9948728049E-03       4    7    1        -0.5374585423E-01      0.1233472901E+00
          0                 3           1             4    7     1       0.6774712939E-04       4    7    1         0.3762209998E-02      0.8633208349E-02

    ------------------------------------------------
       NWT REQUIRED            3 OUTER ITERATIONS 
       AND A TOTAL OF          5 INNER ITERATIONS.
    ------------------------------------------------

 NO OUTPUT CONTROL FOR STRESS PERIOD   14   TIME STEP    2
 
 SOLVING FOR HEAD 
                                                   Max.-Head-Change                         Max.-Flux-Residual
  Residual-Control   Outer-Iter.   Inner-Iter.     Column Row Layer    Maximum-Head-Change  Column Row Layer    Maximum-Flux-Residual          L2-NORM 
          0                 1           2             4    7     1       0.1011325497E-01       4    7    1         0.5314187347E+00      0.1222043869E+01
          0                 2           2             4    7     1      -0.9837461130E-03       4    7    1        -0.5314202030E-01      0.1221939830E+00
          0                 3           1             4    7     1       0.6698944346E-04       4    7    1         0.3719941635E-02      0.8552630066E-02

    ------------------------------------------------
       NWT REQUIRED            3 OUTER ITERATIONS 
       AND A TOTAL OF          5 INNER ITERATIONS.
    ------------------------------------------------

 NO OUTPUT CONTROL FOR STRESS PERIOD   14   TIME STEP    3
 
 SOLVING FOR HEAD 
                                                   Max.-Head-Change                         Max.-Flux-Residual
  Residual-Control   Outer-Iter.   Inner-Iter.     Column Row Layer    Maximum-Head-Change  Column Row Layer    Maximum-Flux-Residual          L2-NORM 
          0                 1           2             4    7     1       0.1000049137E-01       4    7    1         0.5254659010E+00      0.1210679285E+01
          0                 2           2             4    7     1      -0.9727772384E-03       4    7    1        -0.5254673350E-01      0.1210585445E+00
          0                 3           1             4    7     1       0.6624250439E-04       4    7    1         0.3678271584E-02      0.8473277819E-02

    ------------------------------------------------
       NWT REQUIRED            3 OUTER ITERATIONS 
       AND A TOTAL OF          5 INNER ITERATIONS.
    ------------------------------------------------

 NO OUTPUT CONTROL FOR STRESS PERIOD   14   TIME STEP    4
 
 SOLVING FOR HEAD 
                                                   Max.-Head-Change                         Max.-Flux-Residual
  Residual-Control   Outer-Iter.   Inner-Iter.     Column Row Layer    Maximum-Head-Change  Column Row Layer    Maximum-Flux-Residual          L2-NORM 
          0                 1           2             4    7     1       0.9889592256E-02       4    7    1         0.5196118917E+00      0.1199503529E+01
          0                 2           2             4    7     1      -0.9619897289E-03       4    7    1        -0.5196132923E-01      0.1199418223E+00
          0                 3           1             4    7     1       0.6550791529E-04       4    7    1         0.3637293290E-02      0.8395170514E-02

    ------------------------------------------------
       NWT REQUIRED            3 OUTER ITERATIONS 
       AND A TOTAL OF          5 INNER ITERATIONS.
    ------------------------------------------------

 NO OUTPUT CONTROL FOR STRESS PERIOD   14   TIME STEP    5
 
 SOLVING FOR HEAD 
                                                   Max.-Head-Change                         Max.-Flux-Residual
  Residual-Control   Outer-Iter.   Inner-Iter.     Column Row Layer    Maximum-Head-Change  Column Row Layer    Maximum-Flux-Residual          L2-NORM 
          0                 1           2             4    7     1       0.9780521982E-02       4    7    1         0.5138545534E+00      0.1188524006E+01
          0                 2           2             4    7     1      -0.9513801174E-03       4    7    1        -0.5138559218E-01      0.1188448187E+00
          0                 3           1             4    7     1       0.6478544042E-04       4    7    1         0.3596991701E-02      0.8318477572E-02

    ------------------------------------------------
       NWT REQUIRED            3 OUTER ITERATIONS 
       AND A TOTAL OF          5 INNER ITERATIONS.
    ------------------------------------------------

 NO OUTPUT CONTROL FOR STRESS PERIOD   14   TIME STEP    6
 
 SOLVING FOR HEAD 
                                                   Max.-Head-Change                         Max.-Flux-Residual
  Residual-Control   Outer-Iter.   Inner-Iter.     Column Row Layer    Maximum-Head-Change  Column Row Layer    Maximum-Flux-Residual          L2-NORM 
          0                 1           2             4    7     1       0.9673103589E-02       4    7    1         0.5081846852E+00      0.1177705840E+01
          0                 2           2             4    7     1      -0.9409311899E-03       4    7    1        -0.5081860220E-01      0.1177636101E+00
          0                 3           1             4    7     1       0.6407390779E-04       4    7    1         0.3557302412E-02      0.8242698879E-02

    ------------------------------------------------
       NWT REQUIRED            3 OUTER ITERATIONS 
       AND A TOTAL OF          5 INNER ITERATIONS.
    ------------------------------------------------

 NO OUTPUT CONTROL FOR STRESS PERIOD   14   TIME STEP    7
 
 SOLVING FOR HEAD 
                                                   Max.-Head-Change                         Max.-Flux-Residual
  Residual-Control   Outer-Iter.   Inner-Iter.     Column Row Layer    Maximum-Head-Change  Column Row Layer    Maximum-Flux-Residual          L2-NORM 
          0                 1           2             4    7     1       0.9567309541E-02       4    7    1         0.5026004644E+00      0.1167065326E+01
          0                 2           2             4    7     1      -0.9306402683E-03       4    7    1        -0.5026017703E-01      0.1167002603E+00
          0                 3           1             4    7     1       0.6337313468E-04       4    7    1         0.3518212674E-02      0.8168482255E-02

    ------------------------------------------------
       NWT REQUIRED            3 OUTER ITERATIONS 
       AND A TOTAL OF          5 INNER ITERATIONS.
    ------------------------------------------------

 NO OUTPUT CONTROL FOR STRESS PERIOD   14   TIME STEP    8
 
 SOLVING FOR HEAD 
                                                   Max.-Head-Change                         Max.-Flux-Residual
  Residual-Control   Outer-Iter.   Inner-Iter.     Column Row Layer    Maximum-Head-Change  Column Row Layer    Maximum-Flux-Residual          L2-NORM 
          0                 1           2             4    7     1       0.9463108472E-02       4    7    1         0.4971004634E+00      0.1156587781E+01
          0                 2           2             4    7     1      -0.9205043007E-03       4    7    1        -0.4971017391E-01      0.1156530276E+00
          0                 3           1             4    7     1       0.6268291318E-04       4    7    1         0.3479712466E-02      0.8095192186E-02

    ------------------------------------------------
       NWT REQUIRED            3 OUTER ITERATIONS 
       AND A TOTAL OF          5 INNER ITERATIONS.
    ------------------------------------------------

 NO OUTPUT CONTROL FOR STRESS PERIOD   14   TIME STEP    9
 
 SOLVING FOR HEAD 
                                                   Max.-Head-Change                         Max.-Flux-Residual
  Residual-Control   Outer-Iter.   Inner-Iter.     Column Row Layer    Maximum-Head-Change  Column Row Layer    Maximum-Flux-Residual          L2-NORM 
          0                 1           2             4    7     1       0.9360603800E-02       4    7    1         0.4916904092E+00      0.1146270929E+01
          0                 2           2             4    7     1      -0.9105333473E-03       4    7    1        -0.4916916556E-01      0.1146218798E+00
          0                 3           1             4    7     1       0.6200392856E-04       4    7    1         0.3441841873E-02      0.8023061659E-02

    ------------------------------------------------
       NWT REQUIRED            3 OUTER ITERATIONS 
       AND A TOTAL OF          5 INNER ITERATIONS.
    ------------------------------------------------

 NO OUTPUT CONTROL FOR STRESS PERIOD   14   TIME STEP   10
 
 SOLVING FOR HEAD 
                                                   Max.-Head-Change                         Max.-Flux-Residual
  Residual-Control   Outer-Iter.   Inner-Iter.     Column Row Layer    Maximum-Head-Change  Column Row Layer    Maximum-Flux-Residual          L2-NORM 
          0                 1           2             4    7     1       0.9259761935E-02       4    7    1         0.4863683110E+00      0.1136115138E+01
          0                 2           2             4    7     1      -0.9007241418E-03       4    7    1        -0.4863695290E-01      0.1136067022E+00
          0                 3           1             4    7     1       0.6133595849E-04       4    7    1         0.3404587006E-02      0.7952046205E-02

    ------------------------------------------------
       NWT REQUIRED            3 OUTER ITERATIONS 
       AND A TOTAL OF          5 INNER ITERATIONS.
    ------------------------------------------------

 NO OUTPUT CONTROL FOR STRESS PERIOD   14   TIME STEP   11
 
 SOLVING FOR HEAD 
                                                   Max.-Head-Change                         Max.-Flux-Residual
  Residual-Control   Outer-Iter.   Inner-Iter.     Column Row Layer    Maximum-Head-Change  Column Row Layer    Maximum-Flux-Residual          L2-NORM 
          0                 1           2             4    7     1       0.9160410370E-02       4    7    1         0.4811250733E+00      0.1126104663E+01
          0                 2           2             4    7     1      -0.8910599023E-03       4    7    1        -0.4811262633E-01      0.1126060347E+00
          0                 3           1             4    7     1       0.6067786041E-04       4    7    1         0.3367884181E-02      0.7882046587E-02

    ------------------------------------------------
       NWT REQUIRED            3 OUTER ITERATIONS 
       AND A TOTAL OF          5 INNER ITERATIONS.
    ------------------------------------------------

 NO OUTPUT CONTROL FOR STRESS PERIOD   14   TIME STEP   12
 
 SOLVING FOR HEAD 
                                                   Max.-Head-Change                         Max.-Flux-Residual
  Residual-Control   Outer-Iter.   Inner-Iter.     Column Row Layer    Maximum-Head-Change  Column Row Layer    Maximum-Flux-Residual          L2-NORM 
          0                 1           2             4    7     1       0.9062523213E-02       4    7    1         0.4759591053E+00      0.1116244992E+01
          0                 2           2             4    7     1      -0.8815381110E-03       4    7    1        -0.4759602683E-01      0.1116203544E+00
          0                 3           1             4    7     1       0.6002946180E-04       4    7    1         0.3331722224E-02      0.7813048370E-02

    ------------------------------------------------
       NWT REQUIRED            3 OUTER ITERATIONS 
       AND A TOTAL OF          5 INNER ITERATIONS.
    ------------------------------------------------

 NO OUTPUT CONTROL FOR STRESS PERIOD   14   TIME STEP   13
 
 SOLVING FOR HEAD 
                                                   Max.-Head-Change                         Max.-Flux-Residual
  Residual-Control   Outer-Iter.   Inner-Iter.     Column Row Layer    Maximum-Head-Change  Column Row Layer    Maximum-Flux-Residual          L2-NORM 
          0                 1           2             4    7     1       0.8966206507E-02       4    7    1         0.4708764186E+00      0.1106526984E+01
          0                 2           2             4    7     1      -0.8721690824E-03       4    7    1        -0.4708775551E-01      0.1106489196E+00
          0                 3           1             4    7     1       0.5939146615E-04       4    7    1         0.3296143236E-02      0.7745063070E-02

    ------------------------------------------------
       NWT REQUIRED            3 OUTER ITERATIONS 
       AND A TOTAL OF          5 INNER ITERATIONS.
    ------------------------------------------------

 NO OUTPUT CONTROL FOR STRESS PERIOD   14   TIME STEP   14
 
 SOLVING FOR HEAD 
                                                   Max.-Head-Change                         Max.-Flux-Residual
  Residual-Control   Outer-Iter.   Inner-Iter.     Column Row Layer    Maximum-Head-Change  Column Row Layer    Maximum-Flux-Residual          L2-NORM 
          0                 1           2             4    7     1       0.8871428301E-02       4    7    1         0.4658751576E+00      0.1096958352E+01
          0                 2           2             4    7     1      -0.8629497092E-03       4    7    1        -0.4658762683E-01      0.1096923822E+00
          0                 3           1             4    7     1       0.5876366155E-04       4    7    1         0.3261134244E-02      0.7678140280E-02

    ------------------------------------------------
       NWT REQUIRED            3 OUTER ITERATIONS 
       AND A TOTAL OF          5 INNER ITERATIONS.
    ------------------------------------------------

 NO OUTPUT CONTROL FOR STRESS PERIOD   14   TIME STEP   15
 
 SOLVING FOR HEAD 
                                                   Max.-Head-Change                         Max.-Flux-Residual
  Residual-Control   Outer-Iter.   Inner-Iter.     Column Row Layer    Maximum-Head-Change  Column Row Layer    Maximum-Flux-Residual          L2-NORM 
          0                 1           2             4    7     1       0.8778020506E-02       4    7    1         0.4609463115E+00      0.1087523683E+01
          0                 2           2             4    7     1      -0.8538636404E-03       4    7    1        -0.4609473971E-01      0.1087491642E+00
          0                 3           1             4    7     1       0.5814493395E-04       4    7    1         0.3226632147E-02      0.7612162803E-02

    ------------------------------------------------
       NWT REQUIRED            3 OUTER ITERATIONS 
       AND A TOTAL OF          5 INNER ITERATIONS.
    ------------------------------------------------

 NO OUTPUT CONTROL FOR STRESS PERIOD   14   TIME STEP   16
 
 SOLVING FOR HEAD 
                                                   Max.-Head-Change                         Max.-Flux-Residual
  Residual-Control   Outer-Iter.   Inner-Iter.     Column Row Layer    Maximum-Head-Change  Column Row Layer    Maximum-Flux-Residual          L2-NORM 
          0                 1           2             4    7     1       0.8686094947E-02       4    7    1         0.4560958734E+00      0.1078231005E+01
          0                 2           2             4    7     1      -0.8449217539E-03       4    7    1        -0.4560969344E-01      0.1078201288E+00
          0                 3           1             4    7     1       0.5753602521E-04       4    7    1         0.3192678927E-02      0.7547123994E-02

    ------------------------------------------------
       NWT REQUIRED            3 OUTER ITERATIONS 
       AND A TOTAL OF          5 INNER ITERATIONS.
    ------------------------------------------------

 NO OUTPUT CONTROL FOR STRESS PERIOD   14   TIME STEP   17
 
 SOLVING FOR HEAD 
                                                   Max.-Head-Change                         Max.-Flux-Residual
  Residual-Control   Outer-Iter.   Inner-Iter.     Column Row Layer    Maximum-Head-Change  Column Row Layer    Maximum-Flux-Residual          L2-NORM 
          0                 1           2             4    7     1       0.8595481728E-02       4    7    1         0.4513149328E+00      0.1069056093E+01
          0                 2           2             4    7     1      -0.8372131924E-03       4    7    1        -0.4520745294E-01      0.1069270665E+00
          0                 3           1             4    7     1       0.5701109916E-04       4    7    1         0.3164521960E-02      0.7484641435E-02

    ------------------------------------------------
       NWT REQUIRED            3 OUTER ITERATIONS 
       AND A TOTAL OF          5 INNER ITERATIONS.
    ------------------------------------------------

 NO OUTPUT CONTROL FOR STRESS PERIOD   14   TIME STEP   18
 
 SOLVING FOR HEAD 
                                                   Max.-Head-Change                         Max.-Flux-Residual
  Residual-Control   Outer-Iter.   Inner-Iter.     Column Row Layer    Maximum-Head-Change  Column Row Layer    Maximum-Flux-Residual          L2-NORM 
          0                 1           2             4    7     1       0.8502874545E-02       4    7    1         0.4465504054E+00      0.1060005463E+01
          0                 2           2             4    7     1      -0.8270995058E-03       4    7    1        -0.4465515383E-01      0.1059979495E+00
          0                 3           1             4    7     1       0.5632239509E-04       4    7    1         0.3125861048E-02      0.7419625667E-02

    ------------------------------------------------
       NWT REQUIRED            3 OUTER ITERATIONS 
       AND A TOTAL OF          5 INNER ITERATIONS.
    ------------------------------------------------

 NO OUTPUT CONTROL FOR STRESS PERIOD   14   TIME STEP   19
 
 SOLVING FOR HEAD 
                                                   Max.-Head-Change                         Max.-Flux-Residual
  Residual-Control   Outer-Iter.   Inner-Iter.     Column Row Layer    Maximum-Head-Change  Column Row Layer    Maximum-Flux-Residual          L2-NORM 
          0                 1           2             4    7     1       0.8412983274E-02       4    7    1         0.4418004165E+00      0.1051060313E+01
          0                 2           2             4    7     1      -0.8183554937E-03       4    7    1        -0.4418015205E-01      0.1051035652E+00
          0                 3           1             4    7     1       0.5572696064E-04       4    7    1         0.3092610935E-02      0.7357018852E-02

    ------------------------------------------------
       NWT REQUIRED            3 OUTER ITERATIONS 
       AND A TOTAL OF          5 INNER ITERATIONS.
    ------------------------------------------------

 NO OUTPUT CONTROL FOR STRESS PERIOD   14   TIME STEP   20
 
 SOLVING FOR HEAD 
                                                   Max.-Head-Change                         Max.-Flux-Residual
  Residual-Control   Outer-Iter.   Inner-Iter.     Column Row Layer    Maximum-Head-Change  Column Row Layer    Maximum-Flux-Residual          L2-NORM 
          0                 1           2             4    7     1       0.8324493331E-02       4    7    1         0.4371249521E+00      0.1042237060E+01
          0                 2           2             4    7     1      -0.8097477931E-03       4    7    1        -0.4371260276E-01      0.1042213951E+00
          0                 3           1             4    7     1       0.5514080840E-04       4    7    1         0.3059882490E-02      0.7295303421E-02

    ------------------------------------------------
       NWT REQUIRED            3 OUTER ITERATIONS 
       AND A TOTAL OF          5 INNER ITERATIONS.
    ------------------------------------------------

 NO OUTPUT CONTROL FOR STRESS PERIOD   14   TIME STEP   21
 
 SOLVING FOR HEAD 
                                                   Max.-Head-Change                         Max.-Flux-Residual
  Residual-Control   Outer-Iter.   Inner-Iter.     Column Row Layer    Maximum-Head-Change  Column Row Layer    Maximum-Flux-Residual          L2-NORM 
          0                 1           2             4    7     1       0.8237504900E-02       4    7    1         0.4325294994E+00      0.1033536897E+01
          0                 2           2             4    7     1      -0.8012861506E-03       4    7    1        -0.4325305476E-01      0.1033515400E+00
          0                 3           1             4    7     1       0.5456460258E-04       4    7    1         0.3027714148E-02      0.7234391663E-02

    ------------------------------------------------
       NWT REQUIRED            3 OUTER ITERATIONS 
       AND A TOTAL OF          5 INNER ITERATIONS.
    ------------------------------------------------

 NO OUTPUT CONTROL FOR STRESS PERIOD   14   TIME STEP   22
 
 SOLVING FOR HEAD 
                                                   Max.-Head-Change                         Max.-Flux-Residual
  Residual-Control   Outer-Iter.   Inner-Iter.     Column Row Layer    Maximum-Head-Change  Column Row Layer    Maximum-Flux-Residual          L2-NORM 
          0                 1           2             4    7     1       0.8151980250E-02       4    7    1         0.4280118978E+00      0.1024964753E+01
          0                 2           2             4    7     1      -0.7929668949E-03       4    7    1        -0.4280129194E-01      0.1024944109E+00
          0                 3           1             4    7     1       0.5399809209E-04       4    7    1         0.2996090751E-02      0.7174437897E-02

    ------------------------------------------------
       NWT REQUIRED            3 OUTER ITERATIONS 
       AND A TOTAL OF          5 INNER ITERATIONS.
    ------------------------------------------------

 NO OUTPUT CONTROL FOR STRESS PERIOD   14   TIME STEP   23
 
 SOLVING FOR HEAD 
                                                   Max.-Head-Change                         Max.-Flux-Residual
  Residual-Control   Outer-Iter.   Inner-Iter.     Column Row Layer    Maximum-Head-Change  Column Row Layer    Maximum-Flux-Residual          L2-NORM 
          0                 1           2             4    7     1       0.8067745533E-02       4    7    1         0.4235628360E+00      0.1016504848E+01
          0                 2           2             4    7     1      -0.7847731161E-03       4    7    1        -0.4235638319E-01      0.1016485436E+00
          0                 3           1             4    7     1       0.5344012645E-04       4    7    1         0.2964947151E-02      0.7115224223E-02

    ------------------------------------------------
       NWT REQUIRED            3 OUTER ITERATIONS 
       AND A TOTAL OF          5 INNER ITERATIONS.
    ------------------------------------------------

 NO OUTPUT CONTROL FOR STRESS PERIOD   14   TIME STEP   24
 
 SOLVING FOR HEAD 
                                                   Max.-Head-Change                         Max.-Flux-Residual
  Residual-Control   Outer-Iter.   Inner-Iter.     Column Row Layer    Maximum-Head-Change  Column Row Layer    Maximum-Flux-Residual          L2-NORM 
          0                 1           2             4    7     1       0.7985040689E-02       4    7    1         0.4191953659E+00      0.1008165845E+01
          0                 2           2             4    7     1      -0.7767281538E-03       4    7    1        -0.4191963370E-01      0.1008147402E+00
          0                 3           1             4    7     1       0.5289229540E-04       4    7    1         0.2934374720E-02      0.7056873899E-02

    ------------------------------------------------
       NWT REQUIRED            3 OUTER ITERATIONS 
       AND A TOTAL OF          5 INNER ITERATIONS.
    ------------------------------------------------

 NO OUTPUT CONTROL FOR STRESS PERIOD   14   TIME STEP   25
 
 SOLVING FOR HEAD 
                                                   Max.-Head-Change                         Max.-Flux-Residual
  Residual-Control   Outer-Iter.   Inner-Iter.     Column Row Layer    Maximum-Head-Change  Column Row Layer    Maximum-Flux-Residual          L2-NORM 
          0                 1           2             4    7     1       0.7903556130E-02       4    7    1         0.4148925066E+00      0.9999439684E+00
          0                 2           2             4    7     1      -0.7688018923E-03       4    7    1        -0.4148934536E-01      0.9999261742E-01
          0                 3           1             4    7     1       0.5235254638E-04       4    7    1         0.2904254533E-02      0.6999320963E-02

    ------------------------------------------------
       NWT REQUIRED            3 OUTER ITERATIONS 
       AND A TOTAL OF          5 INNER ITERATIONS.
    ------------------------------------------------

 NO OUTPUT CONTROL FOR STRESS PERIOD   14   TIME STEP   26
 
 SOLVING FOR HEAD 
                                                   Max.-Head-Change                         Max.-Flux-Residual
  Residual-Control   Outer-Iter.   Inner-Iter.     Column Row Layer    Maximum-Head-Change  Column Row Layer    Maximum-Flux-Residual          L2-NORM 
          0                 1           2             4    7     1       0.7823261260E-02       4    7    1         0.4106529172E+00      0.9918259395E+00
          0                 2           2             4    7     1      -0.7609913568E-03       4    7    1        -0.4106538410E-01      0.9918057206E-01
          0                 3           1             4    7     1       0.5182067823E-04       4    7    1         0.2874577255E-02      0.6942497544E-02

    ------------------------------------------------
       NWT REQUIRED            3 OUTER ITERATIONS 
       AND A TOTAL OF          5 INNER ITERATIONS.
    ------------------------------------------------

 NO OUTPUT CONTROL FOR STRESS PERIOD   14   TIME STEP   27
 
 SOLVING FOR HEAD 
                                                   Max.-Head-Change                         Max.-Flux-Residual
  Residual-Control   Outer-Iter.   Inner-Iter.     Column Row Layer    Maximum-Head-Change  Column Row Layer    Maximum-Flux-Residual          L2-NORM 
          0                 1           2             4    7     1       0.7744401803E-02       4    7    1         0.4064897228E+00      0.9838282607E+00
          0                 2           2             4    7     1      -0.7533204481E-03       4    7    1        -0.4064906238E-01      0.9838120510E-01
          0                 3           1             4    7     1       0.5129831783E-04       4    7    1         0.2845434732E-02      0.6886549171E-02

    ------------------------------------------------
       NWT REQUIRED            3 OUTER ITERATIONS 
       AND A TOTAL OF          5 INNER ITERATIONS.
    ------------------------------------------------

 NO OUTPUT CONTROL FOR STRESS PERIOD   14   TIME STEP   28
 
 SOLVING FOR HEAD 
                                                   Max.-Head-Change                         Max.-Flux-Residual
  Residual-Control   Outer-Iter.   Inner-Iter.     Column Row Layer    Maximum-Head-Change  Column Row Layer    Maximum-Flux-Residual          L2-NORM 
          0                 1           2             4    7     1       0.7666668571E-02       4    7    1         0.4023862408E+00      0.9759278064E+00
          0                 2           2             4    7     1      -0.7457590922E-03       4    7    1        -0.4023871198E-01      0.9759124151E-01
          0                 3           1             4    7     1       0.5078341833E-04       4    7    1         0.2816710237E-02      0.6831266225E-02

    ------------------------------------------------
       NWT REQUIRED            3 OUTER ITERATIONS 
       AND A TOTAL OF          5 INNER ITERATIONS.
    ------------------------------------------------

 NO OUTPUT CONTROL FOR STRESS PERIOD   14   TIME STEP   29
 
 SOLVING FOR HEAD 
                                                   Max.-Head-Change                         Max.-Flux-Residual
  Residual-Control   Outer-Iter.   Inner-Iter.     Column Row Layer    Maximum-Head-Change  Column Row Layer    Maximum-Flux-Residual          L2-NORM 
          0                 1           2             4    7     1       0.7590171689E-02       4    7    1         0.3983485079E+00      0.9681387151E+00
          0                 2           2             4    7     1      -0.7383179998E-03       4    7    1        -0.3983493656E-01      0.9681241703E-01
          0                 3           1             4    7     1       0.5027670760E-04       4    7    1         0.2788445950E-02      0.6776750847E-02

    ------------------------------------------------
       NWT REQUIRED            3 OUTER ITERATIONS 
       AND A TOTAL OF          5 INNER ITERATIONS.
    ------------------------------------------------

 NO OUTPUT CONTROL FOR STRESS PERIOD   14   TIME STEP   30



 STREAM LISTING     PERIOD     14   STEP       30

 LAYER ROW COL. STREAM  RCH.  FLOW INTO     FLOW TO   FLOW OUT OF   OVRLND.     DIRECT     STREAM       STREAM     STREAM     STREAM   STREAMBED  STREAMBED
                SEG.NO.  NO.  STRM. RCH.    AQUIFER    STRM. RCH.    RUNOFF     PRECIP       ET          HEAD       DEPTH      WIDTH   CONDCTNC.   GRADIENT

   1    1    1     1     1    7.1251E+00  1.2038E-01   7.0047E+00  0.000E+00  0.000E+00  0.000E+00  1.09385E+03  8.024E-01  7.035E+00  3.166E-02  1.267E+00
   1    2    2     1     2    7.0047E+00  1.8492E-01   6.8198E+00  0.000E+00  0.000E+00  0.000E+00  1.08886E+03  7.976E-01  6.956E+00  4.869E-02  1.266E+00
   1    3    3     1     3    6.8198E+00  1.5635E-01   6.6635E+00  0.000E+00  0.000E+00  0.000E+00  1.08321E+03  7.929E-01  6.870E+00  4.122E-02  1.264E+00
   1    3    4     1     4    6.6635E+00  1.4286E-01   6.5206E+00  0.000E+00  0.000E+00  0.000E+00  1.07820E+03  7.886E-01  6.794E+00  3.771E-02  1.263E+00
   1    4    5     2     1    4.5206E+00  2.6715E-01   4.2534E+00  0.000E+00  0.000E+00  0.000E+00  1.07236E+03  4.251E-01  1.200E+01  7.800E-02  1.142E+00
   1    5    6     2     2    4.2534E+00  2.0467E-01   4.0488E+00  0.000E+00  0.000E+00  0.000E+00  1.06692E+03  4.112E-01  1.200E+01  6.000E-02  1.137E+00
   1    6    6     2     3    4.0488E+00  2.0394E-01   3.8448E+00  0.000E+00  0.000E+00  0.000E+00  1.06219E+03  3.989E-01  1.200E+01  6.000E-02  1.133E+00
   1    7    6     2     4    3.8448E+00  2.0319E-01   3.6417E+00  0.000E+00  0.000E+00  0.000E+00  1.05746E+03  3.865E-01  1.200E+01  6.000E-02  1.129E+00
   1    8    6     2     5    3.6417E+00  2.0242E-01   3.4392E+00  0.000E+00  0.000E+00  0.000E+00  1.05273E+03  3.737E-01  1.200E+01  6.000E-02  1.125E+00
   1    3    5     3     1    2.0000E+00  2.8252E-01   1.7175E+00  0.000E+00  0.000E+00  0.000E+00  1.07555E+03  1.909E+00  9.636E+00  7.227E-02  1.955E+00
   1    3    6     3     2    1.7175E+00  2.4905E-01   1.4684E+00  0.000E+00  0.000E+00  0.000E+00  1.07264E+03  1.727E+00  8.909E+00  6.682E-02  1.864E+00
   1    3    7     3     3    1.4684E+00  1.9718E-01   1.2712E+00  0.000E+00  0.000E+00  0.000E+00  1.06987E+03  1.555E+00  8.218E+00  5.547E-02  1.777E+00
   1    4    8     3     4    1.2712E+00  2.2567E-01   1.0456E+00  0.000E+00  0.000E+00  0.000E+00  1.06682E+03  1.364E+00  7.455E+00  6.709E-02  1.682E+00
   1    5    8     3     5    1.0456E+00  1.5790E-01   8.8768E-01  0.000E+00  0.000E+00  0.000E+00  1.06362E+03  1.164E+00  6.655E+00  4.991E-02  1.582E+00
   1    6    8     3     6    8.8768E-01  5.5980E-02   8.3170E-01  0.000E+00  0.000E+00  0.000E+00  1.06158E+03  1.036E+00  6.145E+00  1.844E-02  1.518E+00
   1    5   10     4     1    1.0000E+01  9.0919E-02   9.9091E+00  0.000E+00  0.000E+00  0.000E+00  1.07836E+03  6.368E-01  1.000E+01  2.500E-02  1.212E+00
   1    5    9     4     2    9.9091E+00  1.8158E-01   9.7275E+00  0.000E+00  0.000E+00  0.000E+00  1.07154E+03  6.315E-01  1.000E+01  5.000E-02  1.211E+00
   1    6    8     4     3    9.7275E+00  1.2689E-01   9.6006E+00  0.000E+00  0.000E+00  0.000E+00  1.06381E+03  6.256E-01  1.000E+01  3.500E-02  1.209E+00
   1    6    8     5     1    1.0432E+01  2.2686E-01   1.0205E+01  0.000E+00  0.000E+00  0.000E+00  1.05868E+03  6.790E-01  1.542E+01  6.166E-02  1.226E+00
   1    7    7     5     2    1.0205E+01  2.7894E-01   9.9265E+00  0.000E+00  0.000E+00  0.000E+00  1.05417E+03  6.732E-01  1.519E+01  7.594E-02  1.224E+00
   1    8    7     5     3    9.9265E+00  1.9221E-01   9.7343E+00  0.000E+00  0.000E+00  0.000E+00  1.04992E+03  6.676E-01  1.497E+01  5.241E-02  1.223E+00
   1    8    6     5     4    9.7343E+00  1.3577E-01   9.5985E+00  0.000E+00  0.000E+00  0.000E+00  1.04691E+03  6.637E-01  1.482E+01  3.706E-02  1.221E+00
   1    9    6     6     1    1.3038E+01  2.2931E-01   1.2808E+01  0.000E+00  0.000E+00  0.000E+00  1.04355E+03  8.218E-01  1.200E+01  6.000E-02  1.274E+00
   1   10    7     6     2    1.2808E+01  2.2878E-01   1.2580E+01  0.000E+00  0.000E+00  0.000E+00  1.03899E+03  8.131E-01  1.200E+01  6.000E-02  1.271E+00
   1   11    7     6     3    1.2580E+01  2.2826E-01   1.2351E+01  0.000E+00  0.000E+00  0.000E+00  1.03444E+03  8.043E-01  1.200E+01  6.000E-02  1.268E+00
   1   12    7     6     4    1.2351E+01  2.2772E-01   1.2124E+01  0.000E+00  0.000E+00  0.000E+00  1.02989E+03  7.954E-01  1.200E+01  6.000E-02  1.265E+00
   1   13    7     6     5    1.2124E+01 -2.7896E-02   1.2152E+01  0.000E+00  0.000E+00  0.000E+00  1.02670E+03  7.915E-01  1.200E+01  2.400E-01 -3.874E-02
   1   14    9     7     1    1.5000E+02  1.3699E+00   1.4863E+02  0.000E+00  0.000E+00  0.000E+00  1.03987E+03  2.288E+00  5.529E+01  5.593E-01  8.164E-01
   1   13    8     7     2    1.4863E+02  1.9220E+00   1.4671E+02  0.000E+00  0.000E+00  0.000E+00  1.03478E+03  2.279E+00  5.525E+01  6.148E-01  1.042E+00
   1   13    7     7     3    1.4671E+02  1.6037E+00   1.4510E+02  0.000E+00  0.000E+00  0.000E+00  1.02969E+03  2.269E+00  5.521E+01  5.584E-01  9.573E-01
   1   13    6     8     1    1.5726E+02  9.7981E-01   1.5628E+02  0.000E+00  0.000E+00  0.000E+00  1.02474E+03  2.864E+00  4.153E+01  4.232E-01  7.718E-01
   1   13    5     8     2    1.5628E+02  2.3951E-01   1.5604E+02  0.000E+00  0.000E+00  0.000E+00  1.01848E+03  2.860E+00  4.146E+01  4.225E-01  1.889E-01
   1   13    4     8     3    1.5604E+02 -2.2038E+00   1.5824E+02  0.000E+00  0.000E+00  0.000E+00  1.01224E+03  2.866E+00  4.156E+01  4.235E+00 -1.734E-01
   1   13    3     8     4    1.5824E+02 -3.5300E+00   1.6177E+02  0.000E+00  0.000E+00  0.000E+00  1.00601E+03  2.886E+00  4.185E+01  4.264E+00 -2.759E-01
   1   13    2     8     5    1.6177E+02 -2.5509E+00   1.6432E+02  0.000E+00  0.000E+00  0.000E+00  9.99781E+02  2.906E+00  4.214E+01  4.294E+00 -1.980E-01
   1   13    1     8     6    1.6432E+02 -1.9742E+00   1.6630E+02  0.000E+00  0.000E+00  0.000E+00  9.94796E+02  2.921E+00  4.236E+01  2.590E+00 -2.541E-01
   1    8    6     9     1    0.0000E+00  0.0000E+00   0.0000E+00  0.000E+00  0.000E+00  0.000E+00  1.07875E+03  0.000E+00  4.000E+00  0.000E+00  1.000E+00
   1    8    5     9     2    0.0000E+00  0.0000E+00   0.0000E+00  0.000E+00  0.000E+00  0.000E+00  1.07825E+03  0.000E+00  4.000E+00  0.000E+00  1.000E+00





UNSATURATED ZONE PACKAGE VOLUMETRIC BUDGET FOR  TIME STEP    30 STRESS PERIOD   14
  ------------------------------------------------------------------------------



     CUMULATIVE VOLUMES      L**3       RATES FOR THIS TIME STEP      L**3/T
     ------------------                 ------------------------

           IN:                                      IN:
           ---                                      ---
        INFILTRATION =   434016226.0666          INFILTRATION =           0.8475

          OUT:                                     OUT:
          ----                                     ----
              UZF ET =   431986613.8957                UZF ET =           0.7500
        UZF RECHARGE =       73224.0000          UZF RECHARGE =       0.0000E+00

            IN - OUT =     1956388.1709              IN - OUT =       9.7500E-02

          STORAGE:                                 STORAGE:
          --------                                 --------
      STORAGE CHANGE =     1956391.2684        STORAGE CHANGE =       9.7500E-02

 PERCENT DISCREPANCY IS DIFFERENCE BETWEEN IN-OUT MINUS CHANGE IN STORAGE
 DIVIDED BY THE AVERAGE OF IN AND OUT TIMES 100

 PERCENT DISCREPANCY =           0.00     PERCENT DISCREPANCY =           0.00






1
  VOLUMETRIC BUDGET FOR AGRICULTURAL FIELDS AT  END OF TIME STEP   30, STRESS PERIOD  14
  ------------------------------------------------------------------------------

     CUMULATIVE VOLUMES      L**3       RATES FOR THIS TIME STEP      L**3/T
     ------------------                 ------------------------

           IN:                                      IN:
           ---                                      ---
           AG WELLS      =   178258384.0000             AG WELLS      =           0.0000
      DIVERSION SEGMENTS =   226725392.0000        DIVERSION SEGMENTS =           0.0000
           GW IRRIGATION =           0.0000             GW IRRIGATION =           0.0000
           SW IRRIGATION =           0.0000             SW IRRIGATION =           0.0000
        SYSTEM LOSSES GW =           0.0000          SYSTEM LOSSES GW =           0.0000
        SYSTEM LOSSES SW =           0.0000          SYSTEM LOSSES SW =           0.0000

                TOTAL IN =   404983776.0000                  TOTAL IN =           0.0000

          OUT:                                     OUT:
          ----                                     ----
           AG WELLS      =           0.0000             AG WELLS      =           0.0000
      DIVERSION SEGMENTS =           0.0000        DIVERSION SEGMENTS =           0.0000
           GW IRRIGATION =   178258384.0000             GW IRRIGATION =           0.0000
           SW IRRIGATION =   226729728.0000             SW IRRIGATION =           0.0000
        SYSTEM LOSSES GW =           0.0000          SYSTEM LOSSES GW =           0.0000
        SYSTEM LOSSES SW =           0.0000          SYSTEM LOSSES SW =           0.0000

               TOTAL OUT =   404988096.0000                 TOTAL OUT =           0.0000

                IN - OUT =       -4320.0000                  IN - OUT =           0.0000

     PERCENT DISCREPANCY =          -0.00         PERCENT DISCREPANCY =           0.00



1
  VOLUMETRIC BUDGET FOR ENTIRE MODEL AT END OF TIME STEP   30, STRESS PERIOD  14
  ------------------------------------------------------------------------------

     CUMULATIVE VOLUMES      L**3       RATES FOR THIS TIME STEP      L**3/T
     ------------------                 ------------------------

           IN:                                      IN:
           ---                                      ---
             STORAGE     =   264030608.0000               STORAGE     =           2.5740
       CONSTANT HEAD     =           0.0000         CONSTANT HEAD     =           0.0000
     HEAD DEP BOUNDS     =     9869788.0000       HEAD DEP BOUNDS     =           0.2881
      STREAM LEAKAGE     =   399671360.0000        STREAM LEAKAGE     =          11.1164
        UZF RECHARGE     =       73223.9531          UZF RECHARGE     =           0.0000
               GW ET     =           0.0000                 GW ET     =           0.0000
     SURFACE LEAKAGE     =           0.0000       SURFACE LEAKAGE     =           0.0000
           AG WELLS      =           0.0000             AG WELLS      =           0.0000

                TOTAL IN =   673644928.0000                  TOTAL IN =          13.9785

          OUT:                                     OUT:
          ----                                     ----
             STORAGE     =   131082480.0000               STORAGE     =           3.4047
       CONSTANT HEAD     =           0.0000         CONSTANT HEAD     =           0.0000
     HEAD DEP BOUNDS     =     9867371.0000       HEAD DEP BOUNDS     =           0.2872
      STREAM LEAKAGE     =   354440896.0000        STREAM LEAKAGE     =          10.2868
        UZF RECHARGE     =           0.0000          UZF RECHARGE     =           0.0000
               GW ET     =           0.0000                 GW ET     =           0.0000
     SURFACE LEAKAGE     =           0.0000       SURFACE LEAKAGE     =           0.0000
           AG WELLS      =   178258384.0000             AG WELLS      =           0.0000

               TOTAL OUT =   673649152.0000                 TOTAL OUT =          13.9787

                IN - OUT =       -4224.0000                  IN - OUT =      -2.3365E-04

     PERCENT DISCREPANCY =          -0.00         PERCENT DISCREPANCY =          -0.00






         TIME SUMMARY AT END OF TIME STEP   30 IN STRESS PERIOD   14
                    SECONDS     MINUTES      HOURS       DAYS        YEARS
                    -----------------------------------------------------------
   TIME STEP LENGTH  87667.      1461.1      24.352      1.0147     2.77799E-03
 STRESS PERIOD TIME 2.63000E+06  43833.      730.56      30.440     8.33397E-02
         TOTAL TIME 3.42763E+07 5.71272E+05  9521.2      396.72      1.0862    
1
1
                            STRESS PERIOD NO.   15, LENGTH =   2630000.    
                            -----------------------------------------------

                              NUMBER OF TIME STEPS =    30

                               MULTIPLIER FOR DELT =     1.000

                            INITIAL TIME STEP SIZE =   87666.66    

 REUSING NON-PARAMETER GHB CELLS FROM LAST STRESS PERIOD

      2 GHB CELLS

 REUSING STREAM SEGMENT DATA FROM LAST STRESS PERIOD



            AREAL INFILTRATION RATE
 READING ON UNIT   19 WITH FORMAT: (FREE)              

            1           2           3           4           5           6           7           8           9          10
 ........................................................................................................................
   1   1.0000E-10  2.0000E-10   0.000       0.000       0.000       0.000       0.000       0.000       0.000       0.000    
   2   2.0000E-10  1.0000E-10  2.0000E-10   0.000       0.000      8.0000E-10  8.0000E-10  5.0000E-10   0.000       0.000    
   3    0.000      5.0000E-10  1.0000E-10  1.0000E-10  8.0000E-10  8.0000E-10  5.0000E-10  5.0000E-10   0.000       0.000    
   4   8.0000E-10  5.0000E-10  1.0000E-10  1.0000E-10  1.0000E-10  1.0000E-10  1.0000E-10  1.0000E-10  2.0000E-10   0.000    
   5   8.0000E-10  5.0000E-10  1.0000E-10  1.0000E-10  1.0000E-10  1.0000E-10  1.0000E-10  1.0000E-10  1.0000E-10  1.0000E-10
   6   8.0000E-10  5.0000E-10  5.0000E-10  2.0000E-10  2.0000E-10  1.0000E-10  1.0000E-10  1.0000E-10  1.0000E-10  5.0000E-10
   7   8.0000E-10  5.0000E-10  5.0000E-10  2.0000E-10  2.0000E-10  1.0000E-10  1.0000E-10  2.0000E-10  2.0000E-10   0.000    
   8    0.000      5.0000E-10  5.0000E-10  2.0000E-10  2.0000E-10  1.0000E-10  1.0000E-10  2.0000E-10  5.0000E-10   0.000    
   9    0.000      5.0000E-10  5.0000E-10  2.0000E-10  2.0000E-10  1.0000E-10  1.0000E-10  2.0000E-10  5.0000E-10   0.000    
  10    0.000      5.0000E-10  5.0000E-10  2.0000E-10  2.0000E-10  1.0000E-10  1.0000E-10  2.0000E-10  5.0000E-10  8.0000E-10
  11    0.000      1.0000E-10  1.0000E-10  1.0000E-10  1.0000E-10  1.0000E-10  1.0000E-10  2.0000E-10  5.0000E-10   0.000    
  12   1.0000E-10  1.0000E-10  1.0000E-10  1.0000E-10  1.0000E-10  1.0000E-10  1.0000E-10  1.0000E-10  2.0000E-10   0.000    
  13   1.0000E-10  1.0000E-10  2.0000E-10  2.0000E-10  2.0000E-10  2.0000E-10  2.0000E-10  1.0000E-10  1.0000E-10   0.000    
  14    0.000      2.0000E-10  5.0000E-10  5.0000E-10  5.0000E-10  5.0000E-10  5.0000E-10  2.0000E-10  1.0000E-10   0.000    
  15    0.000       0.000      8.0000E-10  8.0000E-10  8.0000E-10  8.0000E-10   0.000       0.000       0.000       0.000    

                  ET RATE =  5.000000E-10

 USING ET EXTINCTION DEPTH FROM PREVIOUS STRESS PERIOD. CURRENT PERIOD IS:      15

 USING EXTINCTION WATER CONTENT FROM PREVIOUS STRESS PERIOD. CURRENT PERIOD IS:      15

 USING AIR ENTRY PRESSURE FROM PREVIOUS STRESS PERIOD. CURRENT PERIOD IS:      15

 USING ROOT PRESSURE HEAD FROM PREVIOUS STRESS PERIOD. CURRENT PERIOD IS:      15

 USING ROOT ACTIVITY FROM PREVIOUS STRESS PERIOD. CURRENT PERIOD IS:      15

 PROCESSING AG STRESS PERIOD DATA

 READING AG STRESS PERIOD DATA

 READING IRRIGATION SEGMENT

 READING IRRIGATION WELL

 READING SUPPLEMENTAL WELL

 END PROCESSING AG STRESS PERIOD DATA OPTIONS
 
 SOLVING FOR HEAD 
                                                   Max.-Head-Change                         Max.-Flux-Residual
  Residual-Control   Outer-Iter.   Inner-Iter.     Column Row Layer    Maximum-Head-Change  Column Row Layer    Maximum-Flux-Residual          L2-NORM 
          0                 1           2             4    7     1       0.7515016031E-02       4    7    1         0.3943822341E+00      0.9604542548E+00
          0                 2           2             4    7     1      -0.7310073732E-03       4    7    1        -0.3943830712E-01      0.9604399198E-01
          0                 3           1             4    7     1       0.4977888123E-04       4    7    1         0.2760681892E-02      0.6722962040E-02

    ------------------------------------------------
       NWT REQUIRED            3 OUTER ITERATIONS 
       AND A TOTAL OF          5 INNER ITERATIONS.
    ------------------------------------------------

 NO OUTPUT CONTROL FOR STRESS PERIOD   15   TIME STEP    1
 
 SOLVING FOR HEAD 
                                                   Max.-Head-Change                         Max.-Flux-Residual
  Residual-Control   Outer-Iter.   Inner-Iter.     Column Row Layer    Maximum-Head-Change  Column Row Layer    Maximum-Flux-Residual          L2-NORM 
          0                 1           2             4    7     1       0.7440772549E-02       4    7    1         0.3904634322E+00      0.9519431873E+00
          0                 2           2             4    7     1      -0.7237854774E-03       4    7    1        -0.3904642491E-01      0.9519423619E-01
          0                 3           1             4    7     1       0.4928709748E-04       4    7    1         0.2733250159E-02      0.6663588370E-02

    ------------------------------------------------
       NWT REQUIRED            3 OUTER ITERATIONS 
       AND A TOTAL OF          5 INNER ITERATIONS.
    ------------------------------------------------

 NO OUTPUT CONTROL FOR STRESS PERIOD   15   TIME STEP    2
 
 SOLVING FOR HEAD 
                                                   Max.-Head-Change                         Max.-Flux-Residual
  Residual-Control   Outer-Iter.   Inner-Iter.     Column Row Layer    Maximum-Head-Change  Column Row Layer    Maximum-Flux-Residual          L2-NORM 
          0                 1           2             4    7     1       0.7367830053E-02       4    7    1         0.3866139943E+00      0.9440159673E+00
          0                 2           2             4    7     1      -0.7166901326E-03       4    7    1        -0.3866147917E-01      0.9440154847E-01
          0                 3           1             4    7     1       0.4880393113E-04       4    7    1         0.2706303957E-02      0.6608106473E-02

    ------------------------------------------------
       NWT REQUIRED            3 OUTER ITERATIONS 
       AND A TOTAL OF          5 INNER ITERATIONS.
    ------------------------------------------------

 NO OUTPUT CONTROL FOR STRESS PERIOD   15   TIME STEP    3
 
 SOLVING FOR HEAD 
                                                   Max.-Head-Change                         Max.-Flux-Residual
  Residual-Control   Outer-Iter.   Inner-Iter.     Column Row Layer    Maximum-Head-Change  Column Row Layer    Maximum-Flux-Residual          L2-NORM 
          0                 1           2             4    7     1       0.7296021900E-02       4    7    1         0.3828246544E+00      0.9366394078E+00
          0                 2           2             4    7     1      -0.7097051296E-03       4    7    1        -0.3828254330E-01      0.9366392516E-01
          0                 3           1             4    7     1       0.4832827832E-04       4    7    1         0.2679778444E-02      0.6556478244E-02

    ------------------------------------------------
       NWT REQUIRED            3 OUTER ITERATIONS 
       AND A TOTAL OF          5 INNER ITERATIONS.
    ------------------------------------------------

 NO OUTPUT CONTROL FOR STRESS PERIOD   15   TIME STEP    4
 
 SOLVING FOR HEAD 
                                                   Max.-Head-Change                         Max.-Flux-Residual
  Residual-Control   Outer-Iter.   Inner-Iter.     Column Row Layer    Maximum-Head-Change  Column Row Layer    Maximum-Flux-Residual          L2-NORM 
          0                 1           2             4    7     1       0.7225318858E-02       4    7    1         0.3790941286E+00      0.9293739752E+00
          0                 2           2             4    7     1      -0.7028276243E-03       4    7    1        -0.3790948887E-01      0.9293741838E-01
          0                 3           1             4    7     1       0.4785994582E-04       4    7    1         0.2653664647E-02      0.6505637819E-02

    ------------------------------------------------
       NWT REQUIRED            3 OUTER ITERATIONS 
       AND A TOTAL OF          5 INNER ITERATIONS.
    ------------------------------------------------

 NO OUTPUT CONTROL FOR STRESS PERIOD   15   TIME STEP    5
 
 SOLVING FOR HEAD 
                                                   Max.-Head-Change                         Max.-Flux-Residual
  Residual-Control   Outer-Iter.   Inner-Iter.     Column Row Layer    Maximum-Head-Change  Column Row Layer    Maximum-Flux-Residual          L2-NORM 
          0                 1           2             4    7     1       0.7155562188E-02       4    7    1         0.3754135444E+00      0.9222048769E+00
          0                 2           2             4    7     1      -0.6960421762E-03       4    7    1        -0.3754142866E-01      0.9222049816E-01
          0                 3           1             4    7     1       0.4739788256E-04       4    7    1         0.2627900446E-02      0.6455426556E-02

    ------------------------------------------------
       NWT REQUIRED            3 OUTER ITERATIONS 
       AND A TOTAL OF          5 INNER ITERATIONS.
    ------------------------------------------------

 NO OUTPUT CONTROL FOR STRESS PERIOD   15   TIME STEP    6
 
 SOLVING FOR HEAD 
                                                   Max.-Head-Change                         Max.-Flux-Residual
  Residual-Control   Outer-Iter.   Inner-Iter.     Column Row Layer    Maximum-Head-Change  Column Row Layer    Maximum-Flux-Residual          L2-NORM 
          0                 1           2             4    7     1       0.7086998650E-02       4    7    1         0.3717967418E+00      0.9151252812E+00
          0                 2           2             4    7     1      -0.6893727881E-03       4    7    1        -0.3717974669E-01      0.9151253898E-01
          0                 3           1             4    7     1       0.4694372193E-04       4    7    1         0.2602582696E-02      0.6405873364E-02

    ------------------------------------------------
       NWT REQUIRED            3 OUTER ITERATIONS 
       AND A TOTAL OF          5 INNER ITERATIONS.
    ------------------------------------------------

 NO OUTPUT CONTROL FOR STRESS PERIOD   15   TIME STEP    7
 
 SOLVING FOR HEAD 
                                                   Max.-Head-Change                         Max.-Flux-Residual
  Residual-Control   Outer-Iter.   Inner-Iter.     Column Row Layer    Maximum-Head-Change  Column Row Layer    Maximum-Flux-Residual          L2-NORM 
          0                 1           2             4    7     1       0.7019466492E-02       4    7    1         0.3682344446E+00      0.9081433187E+00
          0                 2           2             4    7     1      -0.6828037259E-03       4    7    1        -0.3682351528E-01      0.9081433936E-01
          0                 3           1             4    7     1       0.4649639371E-04       4    7    1         0.2577646522E-02      0.6357027951E-02

    ------------------------------------------------
       NWT REQUIRED            3 OUTER ITERATIONS 
       AND A TOTAL OF          5 INNER ITERATIONS.
    ------------------------------------------------

 NO OUTPUT CONTROL FOR STRESS PERIOD   15   TIME STEP    8
 
 SOLVING FOR HEAD 
                                                   Max.-Head-Change                         Max.-Flux-Residual
  Residual-Control   Outer-Iter.   Inner-Iter.     Column Row Layer    Maximum-Head-Change  Column Row Layer    Maximum-Flux-Residual          L2-NORM 
          0                 1           2             4    7     1       0.6952808443E-02       4    7    1         0.3647182660E+00      0.9012577494E+00
          0                 2           2             4    7     1      -0.6763196913E-03       4    7    1        -0.3647189579E-01      0.9012577065E-01
          0                 3           1             4    7     1       0.4605485511E-04       4    7    1         0.2553033165E-02      0.6308797632E-02

    ------------------------------------------------
       NWT REQUIRED            3 OUTER ITERATIONS 
       AND A TOTAL OF          5 INNER ITERATIONS.
    ------------------------------------------------

 NO OUTPUT CONTROL FOR STRESS PERIOD   15   TIME STEP    9
 
 SOLVING FOR HEAD 
                                                   Max.-Head-Change                         Max.-Flux-Residual
  Residual-Control   Outer-Iter.   Inner-Iter.     Column Row Layer    Maximum-Head-Change  Column Row Layer    Maximum-Flux-Residual          L2-NORM 
          0                 1           2             4    7     1       0.6887273289E-02       4    7    1         0.3612621228E+00      0.8944582902E+00
          0                 2           2             4    7     1      -0.6699448842E-03       4    7    1        -0.3612627988E-01      0.8944581151E-01
          0                 3           1             4    7     1       0.4562075479E-04       4    7    1         0.2528840048E-02      0.6261209256E-02

    ------------------------------------------------
       NWT REQUIRED            3 OUTER ITERATIONS 
       AND A TOTAL OF          5 INNER ITERATIONS.
    ------------------------------------------------

 NO OUTPUT CONTROL FOR STRESS PERIOD   15   TIME STEP   10
 
 SOLVING FOR HEAD 
                                                   Max.-Head-Change                         Max.-Flux-Residual
  Residual-Control   Outer-Iter.   Inner-Iter.     Column Row Layer    Maximum-Head-Change  Column Row Layer    Maximum-Flux-Residual          L2-NORM 
          0                 1           2             4    7     1       0.6822566607E-02       4    7    1         0.3578494857E+00      0.8877446749E+00
          0                 2           2             4    7     1      -0.6636506657E-03       4    7    1        -0.3578501464E-01      0.8877441238E-01
          0                 3           1             4    7     1       0.4519214163E-04       4    7    1         0.2504951471E-02      0.6214200639E-02

    ------------------------------------------------
       NWT REQUIRED            3 OUTER ITERATIONS 
       AND A TOTAL OF          5 INNER ITERATIONS.
    ------------------------------------------------

 NO OUTPUT CONTROL FOR STRESS PERIOD   15   TIME STEP   11
 
 SOLVING FOR HEAD 
                                                   Max.-Head-Change                         Max.-Flux-Residual
  Residual-Control   Outer-Iter.   Inner-Iter.     Column Row Layer    Maximum-Head-Change  Column Row Layer    Maximum-Flux-Residual          L2-NORM 
          0                 1           2             4    7     1       0.6758939378E-02       4    7    1         0.3544945184E+00      0.8811231249E+00
          0                 2           2             4    7     1      -0.6574614492E-03       4    7    1        -0.3544951642E-01      0.8811225677E-01
          0                 3           1             4    7     1       0.4477067907E-04       4    7    1         0.2481466604E-02      0.6167853241E-02

    ------------------------------------------------
       NWT REQUIRED            3 OUTER ITERATIONS 
       AND A TOTAL OF          5 INNER ITERATIONS.
    ------------------------------------------------

 NO OUTPUT CONTROL FOR STRESS PERIOD   15   TIME STEP   12
 
 SOLVING FOR HEAD 
                                                   Max.-Head-Change                         Max.-Flux-Residual
  Residual-Control   Outer-Iter.   Inner-Iter.     Column Row Layer    Maximum-Head-Change  Column Row Layer    Maximum-Flux-Residual          L2-NORM 
          0                 1           2             4    7     1       0.6696230050E-02       4    7    1         0.3511881619E+00      0.8745858062E+00
          0                 2           2             4    7     1      -0.6513615202E-03       4    7    1        -0.3511887929E-01      0.8745850736E-01
          0                 3           1             4    7     1       0.4435529736E-04       4    7    1         0.2458322029E-02      0.6122073401E-02

    ------------------------------------------------
       NWT REQUIRED            3 OUTER ITERATIONS 
       AND A TOTAL OF          5 INNER ITERATIONS.
    ------------------------------------------------

 NO OUTPUT CONTROL FOR STRESS PERIOD   15   TIME STEP   13
 
 SOLVING FOR HEAD 
                                                   Max.-Head-Change                         Max.-Flux-Residual
  Residual-Control   Outer-Iter.   Inner-Iter.     Column Row Layer    Maximum-Head-Change  Column Row Layer    Maximum-Flux-Residual          L2-NORM 
          0                 1           2             4    7     1       0.6634421839E-02       4    7    1         0.3479293972E+00      0.8681367400E+00
          0                 2           2             4    7     1      -0.6453492458E-03       4    7    1        -0.3479300142E-01      0.8681353839E-01
          0                 3           1             4    7     1       0.4394588361E-04       4    7    1         0.2435510569E-02      0.6076933911E-02

    ------------------------------------------------
       NWT REQUIRED            3 OUTER ITERATIONS 
       AND A TOTAL OF          5 INNER ITERATIONS.
    ------------------------------------------------

 NO OUTPUT CONTROL FOR STRESS PERIOD   15   TIME STEP   14
 
 SOLVING FOR HEAD 
                                                   Max.-Head-Change                         Max.-Flux-Residual
  Residual-Control   Outer-Iter.   Inner-Iter.     Column Row Layer    Maximum-Head-Change  Column Row Layer    Maximum-Flux-Residual          L2-NORM 
          0                 1           2             4    7     1       0.6573354402E-02       4    7    1         0.3447099965E+00      0.8617509188E+00
          0                 2           2             4    7     1      -0.6394090292E-03       4    7    1        -0.3447105997E-01      0.8617495544E-01
          0                 3           1             4    7     1       0.4354137703E-04       4    7    1         0.2412974683E-02      0.6032232585E-02

    ------------------------------------------------
       NWT REQUIRED            3 OUTER ITERATIONS 
       AND A TOTAL OF          5 INNER ITERATIONS.
    ------------------------------------------------

 NO OUTPUT CONTROL FOR STRESS PERIOD   15   TIME STEP   15
 
 SOLVING FOR HEAD 
                                                   Max.-Head-Change                         Max.-Flux-Residual
  Residual-Control   Outer-Iter.   Inner-Iter.     Column Row Layer    Maximum-Head-Change  Column Row Layer    Maximum-Flux-Residual          L2-NORM 
          0                 1           2             4    7     1       0.6513292853E-02       4    7    1         0.3415437192E+00      0.8554627615E+00
          0                 2           2             4    7     1      -0.6335666584E-03       4    7    1        -0.3415443093E-01      0.8554612853E-01
          0                 3           1             4    7     1       0.4314353305E-04       4    7    1         0.2390810626E-02      0.5988215868E-02

    ------------------------------------------------
       NWT REQUIRED            3 OUTER ITERATIONS 
       AND A TOTAL OF          5 INNER ITERATIONS.
    ------------------------------------------------

 NO OUTPUT CONTROL FOR STRESS PERIOD   15   TIME STEP   16
 
 SOLVING FOR HEAD 
                                                   Max.-Head-Change                         Max.-Flux-Residual
  Residual-Control   Outer-Iter.   Inner-Iter.     Column Row Layer    Maximum-Head-Change  Column Row Layer    Maximum-Flux-Residual          L2-NORM 
          0                 1           2             4    7     1       0.6454069050E-02       4    7    1         0.3384222382E+00      0.8492459811E+00
          0                 2           2             4    7     1      -0.6278057778E-03       4    7    1        -0.3384228151E-01      0.8492442842E-01
          0                 3           1             4    7     1       0.4275123858E-04       4    7    1         0.2368960164E-02      0.5944701377E-02

    ------------------------------------------------
       NWT REQUIRED            3 OUTER ITERATIONS 
       AND A TOTAL OF          5 INNER ITERATIONS.
    ------------------------------------------------

 NO OUTPUT CONTROL FOR STRESS PERIOD   15   TIME STEP   17
 
 SOLVING FOR HEAD 
                                                   Max.-Head-Change                         Max.-Flux-Residual
  Residual-Control   Outer-Iter.   Inner-Iter.     Column Row Layer    Maximum-Head-Change  Column Row Layer    Maximum-Flux-Residual          L2-NORM 
          0                 1           2             4    7     1       0.6395806954E-02       4    7    1         0.3353515511E+00      0.8431159924E+00
          0                 2           2             4    7     1      -0.6221384461E-03       4    7    1        -0.3353521153E-01      0.8431139999E-01
          0                 3           1             4    7     1       0.4236531477E-04       4    7    1         0.2347465286E-02      0.5901777260E-02

    ------------------------------------------------
       NWT REQUIRED            3 OUTER ITERATIONS 
       AND A TOTAL OF          5 INNER ITERATIONS.
    ------------------------------------------------

 NO OUTPUT CONTROL FOR STRESS PERIOD   15   TIME STEP   18
 
 SOLVING FOR HEAD 
                                                   Max.-Head-Change                         Max.-Flux-Residual
  Residual-Control   Outer-Iter.   Inner-Iter.     Column Row Layer    Maximum-Head-Change  Column Row Layer    Maximum-Flux-Residual          L2-NORM 
          0                 1           2             4    7     1       0.6338209179E-02       4    7    1         0.3323160111E+00      0.8370564232E+00
          0                 2           2             4    7     1      -0.6165357349E-03       4    7    1        -0.3323165630E-01      0.8370540321E-01
          0                 3           1             4    7     1       0.4198379106E-04       4    7    1         0.2326216418E-02      0.5859348735E-02

    ------------------------------------------------
       NWT REQUIRED            3 OUTER ITERATIONS 
       AND A TOTAL OF          5 INNER ITERATIONS.
    ------------------------------------------------

 NO OUTPUT CONTROL FOR STRESS PERIOD   15   TIME STEP   19
 
 SOLVING FOR HEAD 
                                                   Max.-Head-Change                         Max.-Flux-Residual
  Residual-Control   Outer-Iter.   Inner-Iter.     Column Row Layer    Maximum-Head-Change  Column Row Layer    Maximum-Flux-Residual          L2-NORM 
          0                 1           2             4    7     1       0.6281401596E-02       4    7    1         0.3293222732E+00      0.8310661231E+00
          0                 2           2             4    7     1      -0.6110098887E-03       4    7    1        -0.3293228131E-01      0.8310636317E-01
          0                 3           1             4    7     1       0.4160750174E-04       4    7    1         0.2305260193E-02      0.5817425207E-02

    ------------------------------------------------
       NWT REQUIRED            3 OUTER ITERATIONS 
       AND A TOTAL OF          5 INNER ITERATIONS.
    ------------------------------------------------

 NO OUTPUT CONTROL FOR STRESS PERIOD   15   TIME STEP   20
 
 SOLVING FOR HEAD 
                                                   Max.-Head-Change                         Max.-Flux-Residual
  Residual-Control   Outer-Iter.   Inner-Iter.     Column Row Layer    Maximum-Head-Change  Column Row Layer    Maximum-Flux-Residual          L2-NORM 
          0                 1           2             4    7     1       0.6225501799E-02       4    7    1         0.3263768641E+00      0.8251605699E+00
          0                 2           2             4    7     1      -0.6055723454E-03       4    7    1        -0.3263773923E-01      0.8251580086E-01
          0                 3           1             4    7     1       0.4123722558E-04       4    7    1         0.2284642241E-02      0.5776081786E-02

    ------------------------------------------------
       NWT REQUIRED            3 OUTER ITERATIONS 
       AND A TOTAL OF          5 INNER ITERATIONS.
    ------------------------------------------------

 NO OUTPUT CONTROL FOR STRESS PERIOD   15   TIME STEP   21
 
 SOLVING FOR HEAD 
                                                   Max.-Head-Change                         Max.-Flux-Residual
  Residual-Control   Outer-Iter.   Inner-Iter.     Column Row Layer    Maximum-Head-Change  Column Row Layer    Maximum-Flux-Residual          L2-NORM 
          0                 1           2             4    7     1       0.6170353247E-02       4    7    1         0.3234711640E+00      0.8193197163E+00
          0                 2           2             4    7     1      -0.6002078783E-03       4    7    1        -0.3234716809E-01      0.8193167170E-01
          0                 3           1             4    7     1       0.4087192524E-04       4    7    1         0.2264302257E-02      0.5735185916E-02

    ------------------------------------------------
       NWT REQUIRED            3 OUTER ITERATIONS 
       AND A TOTAL OF          5 INNER ITERATIONS.
    ------------------------------------------------

 NO OUTPUT CONTROL FOR STRESS PERIOD   15   TIME STEP   22
 
 SOLVING FOR HEAD 
                                                   Max.-Head-Change                         Max.-Flux-Residual
  Residual-Control   Outer-Iter.   Inner-Iter.     Column Row Layer    Maximum-Head-Change  Column Row Layer    Maximum-Flux-Residual          L2-NORM 
          0                 1           2             4    7     1       0.6115941183E-02       4    7    1         0.3206044150E+00      0.8135544075E+00
          0                 2           2             4    7     1      -0.5949150520E-03       4    7    1        -0.3206049211E-01      0.8135512773E-01
          0                 3           1             4    7     1       0.4051150344E-04       4    7    1         0.2244234938E-02      0.5694831121E-02

    ------------------------------------------------
       NWT REQUIRED            3 OUTER ITERATIONS 
       AND A TOTAL OF          5 INNER ITERATIONS.
    ------------------------------------------------

 NO OUTPUT CONTROL FOR STRESS PERIOD   15   TIME STEP   23
 
 SOLVING FOR HEAD 
                                                   Max.-Head-Change                         Max.-Flux-Residual
  Residual-Control   Outer-Iter.   Inner-Iter.     Column Row Layer    Maximum-Head-Change  Column Row Layer    Maximum-Flux-Residual          L2-NORM 
          0                 1           2             4    7     1       0.6062249645E-02       4    7    1         0.3177758518E+00      0.8078529116E+00
          0                 2           2             4    7     1      -0.5896923134E-03       4    7    1        -0.3177763470E-01      0.8078496012E-01
          0                 3           1             4    7     1       0.4015585452E-04       4    7    1         0.2224434925E-02      0.5654919272E-02

    ------------------------------------------------
       NWT REQUIRED            3 OUTER ITERATIONS 
       AND A TOTAL OF          5 INNER ITERATIONS.
    ------------------------------------------------

 NO OUTPUT CONTROL FOR STRESS PERIOD   15   TIME STEP   24
 
 SOLVING FOR HEAD 
                                                   Max.-Head-Change                         Max.-Flux-Residual
  Residual-Control   Outer-Iter.   Inner-Iter.     Column Row Layer    Maximum-Head-Change  Column Row Layer    Maximum-Flux-Residual          L2-NORM 
          0                 1           2             4    7     1       0.6009267873E-02       4    7    1         0.3149846470E+00      0.8022287681E+00
          0                 2           2             4    7     1      -0.5845386165E-03       4    7    1        -0.3149851317E-01      0.8022255337E-01
          0                 3           1             4    7     1       0.3980490699E-04       4    7    1         0.2204896421E-02      0.5652717781E-02

    ------------------------------------------------
       NWT REQUIRED            3 OUTER ITERATIONS 
       AND A TOTAL OF          5 INNER ITERATIONS.
    ------------------------------------------------

 NO OUTPUT CONTROL FOR STRESS PERIOD   15   TIME STEP   25
 
 SOLVING FOR HEAD 
                                                   Max.-Head-Change                         Max.-Flux-Residual
  Residual-Control   Outer-Iter.   Inner-Iter.     Column Row Layer    Maximum-Head-Change  Column Row Layer    Maximum-Flux-Residual          L2-NORM 
          0                 1           2             4    7     1       0.5956979452E-02       4    7    1         0.3122302425E+00      0.7966669395E+00
          0                 2           2             4    7     1      -0.5794523631E-03       4    7    1        -0.3122307167E-01      0.7966633482E-01
          0                 3           1             4    7     1       0.3945855198E-04       4    7    1         0.2185615502E-02      0.5577010165E-02

    ------------------------------------------------
       NWT REQUIRED            3 OUTER ITERATIONS 
       AND A TOTAL OF          5 INNER ITERATIONS.
    ------------------------------------------------

 NO OUTPUT CONTROL FOR STRESS PERIOD   15   TIME STEP   26
 
 SOLVING FOR HEAD 
                                                   Max.-Head-Change                         Max.-Flux-Residual
  Residual-Control   Outer-Iter.   Inner-Iter.     Column Row Layer    Maximum-Head-Change  Column Row Layer    Maximum-Flux-Residual          L2-NORM 
          0                 1           2             4    7     1       0.5905504274E-02       4    7    1         0.3095191462E+00      0.7911667072E+00
          0                 2           2             4    7     1      -0.5744445678E-03       4    7    1        -0.3095196105E-01      0.7911736117E-01
          0                 3           1             4    7     1       0.3911690784E-04       4    7    1         0.2166637776E-02      0.5537507919E-02

    ------------------------------------------------
       NWT REQUIRED            3 OUTER ITERATIONS 
       AND A TOTAL OF          5 INNER ITERATIONS.
    ------------------------------------------------

 NO OUTPUT CONTROL FOR STRESS PERIOD   15   TIME STEP   27
 
 SOLVING FOR HEAD 
                                                   Max.-Head-Change                         Max.-Flux-Residual
  Residual-Control   Outer-Iter.   Inner-Iter.     Column Row Layer    Maximum-Head-Change  Column Row Layer    Maximum-Flux-Residual          L2-NORM 
          0                 1           2             4    7     1       0.5854691593E-02       4    7    1         0.3068428550E+00      0.7857442572E+00
          0                 2           2             4    7     1      -0.5695154851E-03       4    7    1        -0.3068433097E-01      0.7858699479E-01
          0                 3           1             4    7     1       0.3878188783E-04       4    7    1         0.2147903672E-02      0.5501061696E-02

    ------------------------------------------------
       NWT REQUIRED            3 OUTER ITERATIONS 
       AND A TOTAL OF          5 INNER ITERATIONS.
    ------------------------------------------------

 NO OUTPUT CONTROL FOR STRESS PERIOD   15   TIME STEP   28
 
 SOLVING FOR HEAD 
                                                   Max.-Head-Change                         Max.-Flux-Residual
  Residual-Control   Outer-Iter.   Inner-Iter.     Column Row Layer    Maximum-Head-Change  Column Row Layer    Maximum-Flux-Residual          L2-NORM 
          0                 1           2             4    7     1       0.5804559446E-02       4    7    1         0.3042002270E+00      0.8187016420E+00
          0                 2           2             4    7     1      -0.5646260104E-03       4    7    1        -0.3042006722E-01      0.8649639160E-01
          0                 3           1             4    7     1       0.3844893197E-04       4    7    1         0.2129405208E-02      0.6039566663E-02

    ------------------------------------------------
       NWT REQUIRED            3 OUTER ITERATIONS 
       AND A TOTAL OF          5 INNER ITERATIONS.
    ------------------------------------------------

 NO OUTPUT CONTROL FOR STRESS PERIOD   15   TIME STEP   29
 
 SOLVING FOR HEAD 
                                                   Max.-Head-Change                         Max.-Flux-Residual
  Residual-Control   Outer-Iter.   Inner-Iter.     Column Row Layer    Maximum-Head-Change  Column Row Layer    Maximum-Flux-Residual          L2-NORM 
          0                 1           2             4   13     1       0.1103891779E-01       4   13    1         0.6345836744E+00      0.1403991505E+01
          0                 2           2             4   13     1      -0.1062679182E-02       4   13    1        -0.6281172246E-01      0.1379234358E+00
          0                 3           1             4   13     1       0.7132641951E-04       4   13    1         0.4334663574E-02      0.9425427455E-02

    ------------------------------------------------
       NWT REQUIRED            3 OUTER ITERATIONS 
       AND A TOTAL OF          5 INNER ITERATIONS.
    ------------------------------------------------

 NO OUTPUT CONTROL FOR STRESS PERIOD   15   TIME STEP   30



 STREAM LISTING     PERIOD     15   STEP       30

 LAYER ROW COL. STREAM  RCH.  FLOW INTO     FLOW TO   FLOW OUT OF   OVRLND.     DIRECT     STREAM       STREAM     STREAM     STREAM   STREAMBED  STREAMBED
                SEG.NO.  NO.  STRM. RCH.    AQUIFER    STRM. RCH.    RUNOFF     PRECIP       ET          HEAD       DEPTH      WIDTH   CONDCTNC.   GRADIENT

   1    1    1     1     1    3.6751E+01  2.9262E-01   3.6458E+01  0.000E+00  0.000E+00  0.000E+00  1.09435E+03  1.306E+00  1.510E+01  6.795E-02  1.435E+00
   1    2    2     1     2    3.6458E+01  4.5310E-01   3.6005E+01  0.000E+00  0.000E+00  0.000E+00  1.08936E+03  1.303E+00  1.504E+01  1.053E-01  1.434E+00
   1    3    3     1     3    3.6005E+01  3.8635E-01   3.5618E+01  0.000E+00  0.000E+00  0.000E+00  1.08372E+03  1.300E+00  1.497E+01  8.985E-02  1.433E+00
   1    3    4     1     4    3.5618E+01  3.5572E-01   3.5263E+01  0.000E+00  0.000E+00  0.000E+00  1.07870E+03  1.297E+00  1.492E+01  8.278E-02  1.432E+00
   1    4    5     2     1    3.3263E+01  3.4544E-01   3.2917E+01  0.000E+00  0.000E+00  0.000E+00  1.07336E+03  1.429E+00  1.200E+01  7.800E-02  1.476E+00
   1    5    6     2     2    3.2917E+01  2.6525E-01   3.2652E+01  0.000E+00  0.000E+00  0.000E+00  1.06793E+03  1.421E+00  1.200E+01  6.000E-02  1.474E+00
   1    6    6     2     3    3.2652E+01  2.6484E-01   3.2387E+01  0.000E+00  0.000E+00  0.000E+00  1.06321E+03  1.414E+00  1.200E+01  6.000E-02  1.471E+00
   1    7    6     2     4    3.2387E+01  2.6442E-01   3.2123E+01  0.000E+00  0.000E+00  0.000E+00  1.05848E+03  1.407E+00  1.200E+01  6.000E-02  1.469E+00
   1    8    6     2     5    3.2123E+01  2.6401E-01   3.1859E+01  0.000E+00  0.000E+00  0.000E+00  1.05376E+03  1.400E+00  1.200E+01  6.000E-02  1.467E+00
   1    3    5     3     1    2.0000E+00  2.8252E-01   1.7175E+00  0.000E+00  0.000E+00  0.000E+00  1.07555E+03  1.909E+00  9.636E+00  7.227E-02  1.955E+00
   1    3    6     3     2    1.7175E+00  2.4905E-01   1.4684E+00  0.000E+00  0.000E+00  0.000E+00  1.07264E+03  1.727E+00  8.909E+00  6.682E-02  1.864E+00
   1    3    7     3     3    1.4684E+00  1.9718E-01   1.2712E+00  0.000E+00  0.000E+00  0.000E+00  1.06987E+03  1.555E+00  8.218E+00  5.547E-02  1.777E+00
   1    4    8     3     4    1.2712E+00  2.2567E-01   1.0456E+00  0.000E+00  0.000E+00  0.000E+00  1.06682E+03  1.364E+00  7.455E+00  6.709E-02  1.682E+00
   1    5    8     3     5    1.0456E+00  1.5790E-01   8.8768E-01  0.000E+00  0.000E+00  0.000E+00  1.06362E+03  1.164E+00  6.655E+00  4.991E-02  1.582E+00
   1    6    8     3     6    8.8768E-01  5.5980E-02   8.3170E-01  0.000E+00  0.000E+00  0.000E+00  1.06158E+03  1.036E+00  6.145E+00  1.844E-02  1.518E+00
   1    5   10     4     1    1.0000E+01  9.0919E-02   9.9091E+00  0.000E+00  0.000E+00  0.000E+00  1.07836E+03  6.368E-01  1.000E+01  2.500E-02  1.212E+00
   1    5    9     4     2    9.9091E+00  1.8158E-01   9.7275E+00  0.000E+00  0.000E+00  0.000E+00  1.07154E+03  6.315E-01  1.000E+01  5.000E-02  1.211E+00
   1    6    8     4     3    9.7275E+00  1.2689E-01   9.6006E+00  0.000E+00  0.000E+00  0.000E+00  1.06381E+03  6.256E-01  1.000E+01  3.500E-02  1.209E+00
   1    6    8     5     1    1.0432E+01  2.2686E-01   1.0205E+01  0.000E+00  0.000E+00  0.000E+00  1.05868E+03  6.790E-01  1.542E+01  6.166E-02  1.226E+00
   1    7    7     5     2    1.0205E+01  2.7894E-01   9.9265E+00  0.000E+00  0.000E+00  0.000E+00  1.05417E+03  6.732E-01  1.519E+01  7.594E-02  1.224E+00
   1    8    7     5     3    9.9265E+00  1.9221E-01   9.7343E+00  0.000E+00  0.000E+00  0.000E+00  1.04992E+03  6.676E-01  1.497E+01  5.241E-02  1.223E+00
   1    8    6     5     4    9.7343E+00  1.3577E-01   9.5985E+00  0.000E+00  0.000E+00  0.000E+00  1.04691E+03  6.637E-01  1.482E+01  3.706E-02  1.221E+00
   1    9    6     6     1    4.1457E+01  2.7904E-01   4.1178E+01  0.000E+00  0.000E+00  0.000E+00  1.04438E+03  1.651E+00  1.200E+01  6.000E-02  1.550E+00
   1   10    7     6     2    4.1178E+01  2.7864E-01   4.0900E+01  0.000E+00  0.000E+00  0.000E+00  1.03983E+03  1.644E+00  1.200E+01  6.000E-02  1.548E+00
   1   11    7     6     3    4.0900E+01  2.7823E-01   4.0621E+01  0.000E+00  0.000E+00  0.000E+00  1.03527E+03  1.637E+00  1.200E+01  6.000E-02  1.546E+00
   1   12    7     6     4    4.0621E+01  2.7783E-01   4.0344E+01  0.000E+00  0.000E+00  0.000E+00  1.03072E+03  1.631E+00  1.200E+01  6.000E-02  1.544E+00
   1   13    7     6     5    4.0344E+01  1.7458E-02   4.0326E+01  0.000E+00  0.000E+00  0.000E+00  1.02754E+03  1.627E+00  1.200E+01  2.400E-02  2.425E-01
   1   14    9     7     1    1.5000E+02  1.3702E+00   1.4863E+02  0.000E+00  0.000E+00  0.000E+00  1.03987E+03  2.288E+00  5.529E+01  5.593E-01  8.166E-01
   1   13    8     7     2    1.4863E+02  1.9244E+00   1.4671E+02  0.000E+00  0.000E+00  0.000E+00  1.03478E+03  2.279E+00  5.525E+01  6.148E-01  1.043E+00
   1   13    7     7     3    1.4671E+02  1.6083E+00   1.4510E+02  0.000E+00  0.000E+00  0.000E+00  1.02969E+03  2.269E+00  5.521E+01  5.584E-01  9.600E-01
   1   13    6     8     1    1.8542E+02  1.1293E+00   1.8429E+02  0.000E+00  0.000E+00  0.000E+00  1.02492E+03  3.046E+00  4.417E+01  4.501E-01  8.363E-01
   1   13    5     8     2    1.8429E+02  3.4141E-01   1.8395E+02  0.000E+00  0.000E+00  0.000E+00  1.01867E+03  3.042E+00  4.411E+01  4.495E-01  2.532E-01
   1   13    4     8     3    1.8395E+02 -1.5803E+00   1.8553E+02  0.000E+00  0.000E+00  0.000E+00  1.01242E+03  3.046E+00  4.416E+01  4.500E+00 -1.171E-01
   1   13    3     8     4    1.8553E+02 -3.0027E+00   1.8854E+02  0.000E+00  0.000E+00  0.000E+00  1.00618E+03  3.060E+00  4.437E+01  4.521E+00 -2.214E-01
   1   13    2     8     5    1.8854E+02 -1.9911E+00   1.9053E+02  0.000E+00  0.000E+00  0.000E+00  9.99950E+02  3.075E+00  4.459E+01  4.544E+00 -1.461E-01
   1   13    1     8     6    1.9053E+02 -1.6541E+00   1.9218E+02  0.000E+00  0.000E+00  0.000E+00  9.94961E+02  3.086E+00  4.475E+01  2.736E+00 -2.015E-01
   1    8    6     9     1    0.0000E+00  0.0000E+00   0.0000E+00  0.000E+00  0.000E+00  0.000E+00  1.07875E+03  0.000E+00  4.000E+00  0.000E+00  1.000E+00
   1    8    5     9     2    0.0000E+00  0.0000E+00   0.0000E+00  0.000E+00  0.000E+00  0.000E+00  1.07825E+03  0.000E+00  4.000E+00  0.000E+00  1.000E+00





UNSATURATED ZONE PACKAGE VOLUMETRIC BUDGET FOR  TIME STEP    30 STRESS PERIOD   15
  ------------------------------------------------------------------------------



     CUMULATIVE VOLUMES      L**3       RATES FOR THIS TIME STEP      L**3/T
     ------------------                 ------------------------

           IN:                                      IN:
           ---                                      ---
        INFILTRATION =   436245150.9393          INFILTRATION =           0.8475

          OUT:                                     OUT:
          ----                                     ----
              UZF ET =   433959113.7961                UZF ET =           0.7500
        UZF RECHARGE =       73224.0000          UZF RECHARGE =       0.0000E+00

            IN - OUT =     2212813.1432              IN - OUT =       9.7500E-02

          STORAGE:                                 STORAGE:
          --------                                 --------
      STORAGE CHANGE =     2212816.2630        STORAGE CHANGE =       9.7500E-02

 PERCENT DISCREPANCY IS DIFFERENCE BETWEEN IN-OUT MINUS CHANGE IN STORAGE
 DIVIDED BY THE AVERAGE OF IN AND OUT TIMES 100

 PERCENT DISCREPANCY =           0.00     PERCENT DISCREPANCY =           0.00






1
  VOLUMETRIC BUDGET FOR AGRICULTURAL FIELDS AT  END OF TIME STEP   30, STRESS PERIOD  15
  ------------------------------------------------------------------------------

     CUMULATIVE VOLUMES      L**3       RATES FOR THIS TIME STEP      L**3/T
     ------------------                 ------------------------

           IN:                                      IN:
           ---                                      ---
           AG WELLS      =   178258384.0000             AG WELLS      =           0.0000
      DIVERSION SEGMENTS =   226725392.0000        DIVERSION SEGMENTS =           0.0000
           GW IRRIGATION =           0.0000             GW IRRIGATION =           0.0000
           SW IRRIGATION =           0.0000             SW IRRIGATION =           0.0000
        SYSTEM LOSSES GW =           0.0000          SYSTEM LOSSES GW =           0.0000
        SYSTEM LOSSES SW =           0.0000          SYSTEM LOSSES SW =           0.0000

                TOTAL IN =   404983776.0000                  TOTAL IN =           0.0000

          OUT:                                     OUT:
          ----                                     ----
           AG WELLS      =           0.0000             AG WELLS      =           0.0000
      DIVERSION SEGMENTS =           0.0000        DIVERSION SEGMENTS =           0.0000
           GW IRRIGATION =   178258384.0000             GW IRRIGATION =           0.0000
           SW IRRIGATION =   226729728.0000             SW IRRIGATION =           0.0000
        SYSTEM LOSSES GW =           0.0000          SYSTEM LOSSES GW =           0.0000
        SYSTEM LOSSES SW =           0.0000          SYSTEM LOSSES SW =           0.0000

               TOTAL OUT =   404988096.0000                 TOTAL OUT =           0.0000

                IN - OUT =       -4320.0000                  IN - OUT =           0.0000

     PERCENT DISCREPANCY =          -0.00         PERCENT DISCREPANCY =           0.00



1
  VOLUMETRIC BUDGET FOR ENTIRE MODEL AT END OF TIME STEP   30, STRESS PERIOD  15
  ------------------------------------------------------------------------------

     CUMULATIVE VOLUMES      L**3       RATES FOR THIS TIME STEP      L**3/T
     ------------------                 ------------------------

           IN:                                      IN:
           ---                                      ---
             STORAGE     =   269874976.0000               STORAGE     =           1.6229
       CONSTANT HEAD     =           0.0000         CONSTANT HEAD     =           0.0000
     HEAD DEP BOUNDS     =    10627456.0000       HEAD DEP BOUNDS     =           0.2881
      STREAM LEAKAGE     =   429272032.0000        STREAM LEAKAGE     =          12.7980
        UZF RECHARGE     =       73223.9531          UZF RECHARGE     =           0.0000
               GW ET     =           0.0000                 GW ET     =           0.0000
     SURFACE LEAKAGE     =           0.0000       SURFACE LEAKAGE     =           0.0000
           AG WELLS      =           0.0000             AG WELLS      =           0.0000

                TOTAL IN =   709847680.0000                  TOTAL IN =          14.7090

          OUT:                                     OUT:
          ----                                     ----
             STORAGE     =   139833440.0000               STORAGE     =           6.1947
       CONSTANT HEAD     =           0.0000         CONSTANT HEAD     =           0.0000
     HEAD DEP BOUNDS     =    10622827.0000       HEAD DEP BOUNDS     =           0.2875
      STREAM LEAKAGE     =   381138144.0000        STREAM LEAKAGE     =           8.2282
        UZF RECHARGE     =           0.0000          UZF RECHARGE     =           0.0000
               GW ET     =           0.0000                 GW ET     =           0.0000
     SURFACE LEAKAGE     =           0.0000       SURFACE LEAKAGE     =           0.0000
           AG WELLS      =   178258384.0000             AG WELLS      =           0.0000

               TOTAL OUT =   709852800.0000                 TOTAL OUT =          14.7103

                IN - OUT =       -5120.0000                  IN - OUT =      -1.2980E-03

     PERCENT DISCREPANCY =          -0.00         PERCENT DISCREPANCY =          -0.01






         TIME SUMMARY AT END OF TIME STEP   30 IN STRESS PERIOD   15
                    SECONDS     MINUTES      HOURS       DAYS        YEARS
                    -----------------------------------------------------------
   TIME STEP LENGTH  87667.      1461.1      24.352      1.0147     2.77799E-03
 STRESS PERIOD TIME 2.63000E+06  43833.      730.56      30.440     8.33397E-02
         TOTAL TIME 3.69063E+07 6.15106E+05  10252.      427.16      1.1695    
1
1
                            STRESS PERIOD NO.   16, LENGTH =   2630000.    
                            -----------------------------------------------

                              NUMBER OF TIME STEPS =    30

                               MULTIPLIER FOR DELT =     1.000

                            INITIAL TIME STEP SIZE =   87666.66    

 REUSING NON-PARAMETER GHB CELLS FROM LAST STRESS PERIOD

      2 GHB CELLS

 REUSING STREAM SEGMENT DATA FROM LAST STRESS PERIOD



            AREAL INFILTRATION RATE
 READING ON UNIT   19 WITH FORMAT: (FREE)              

            1           2           3           4           5           6           7           8           9          10
 ........................................................................................................................
   1   1.0000E-10  2.0000E-10   0.000       0.000       0.000       0.000       0.000       0.000       0.000       0.000    
   2   2.0000E-10  1.0000E-10  2.0000E-10   0.000       0.000      8.0000E-10  8.0000E-10  5.0000E-10   0.000       0.000    
   3    0.000      5.0000E-10  1.0000E-10  1.0000E-10  8.0000E-10  8.0000E-10  5.0000E-10  5.0000E-10   0.000       0.000    
   4   8.0000E-10  5.0000E-10  1.0000E-10  1.0000E-10  1.0000E-10  1.0000E-10  1.0000E-10  1.0000E-10  2.0000E-10   0.000    
   5   8.0000E-10  5.0000E-10  1.0000E-10  1.0000E-10  1.0000E-10  1.0000E-10  1.0000E-10  1.0000E-10  1.0000E-10  1.0000E-10
   6   8.0000E-10  5.0000E-10  5.0000E-10  2.0000E-10  2.0000E-10  1.0000E-10  1.0000E-10  1.0000E-10  1.0000E-10  5.0000E-10
   7   8.0000E-10  5.0000E-10  5.0000E-10  2.0000E-10  2.0000E-10  1.0000E-10  1.0000E-10  2.0000E-10  2.0000E-10   0.000    
   8    0.000      5.0000E-10  5.0000E-10  2.0000E-10  2.0000E-10  1.0000E-10  1.0000E-10  2.0000E-10  5.0000E-10   0.000    
   9    0.000      5.0000E-10  5.0000E-10  2.0000E-10  2.0000E-10  1.0000E-10  1.0000E-10  2.0000E-10  5.0000E-10   0.000    
  10    0.000      5.0000E-10  5.0000E-10  2.0000E-10  2.0000E-10  1.0000E-10  1.0000E-10  2.0000E-10  5.0000E-10  8.0000E-10
  11    0.000      1.0000E-10  1.0000E-10  1.0000E-10  1.0000E-10  1.0000E-10  1.0000E-10  2.0000E-10  5.0000E-10   0.000    
  12   1.0000E-10  1.0000E-10  1.0000E-10  1.0000E-10  1.0000E-10  1.0000E-10  1.0000E-10  1.0000E-10  2.0000E-10   0.000    
  13   1.0000E-10  1.0000E-10  2.0000E-10  2.0000E-10  2.0000E-10  2.0000E-10  2.0000E-10  1.0000E-10  1.0000E-10   0.000    
  14    0.000      2.0000E-10  5.0000E-10  5.0000E-10  5.0000E-10  5.0000E-10  5.0000E-10  2.0000E-10  1.0000E-10   0.000    
  15    0.000       0.000      8.0000E-10  8.0000E-10  8.0000E-10  8.0000E-10   0.000       0.000       0.000       0.000    

                  ET RATE =  5.000000E-10

 USING ET EXTINCTION DEPTH FROM PREVIOUS STRESS PERIOD. CURRENT PERIOD IS:      16

 USING EXTINCTION WATER CONTENT FROM PREVIOUS STRESS PERIOD. CURRENT PERIOD IS:      16

 USING AIR ENTRY PRESSURE FROM PREVIOUS STRESS PERIOD. CURRENT PERIOD IS:      16

 USING ROOT PRESSURE HEAD FROM PREVIOUS STRESS PERIOD. CURRENT PERIOD IS:      16

 USING ROOT ACTIVITY FROM PREVIOUS STRESS PERIOD. CURRENT PERIOD IS:      16

 PROCESSING AG STRESS PERIOD DATA

 READING AG STRESS PERIOD DATA

 READING IRRIGATION SEGMENT

 READING IRRIGATION WELL

 READING SUPPLEMENTAL WELL

 END PROCESSING AG STRESS PERIOD DATA OPTIONS
 
 SOLVING FOR HEAD 
                                                   Max.-Head-Change                         Max.-Flux-Residual
  Residual-Control   Outer-Iter.   Inner-Iter.     Column Row Layer    Maximum-Head-Change  Column Row Layer    Maximum-Flux-Residual          L2-NORM 
          0                 1           2             4   13     1       0.9986136822E-02       4   13    1         0.5737748573E+00      0.1334298886E+01
          0                 2           2             4   13     1      -0.9612963080E-03       4   13    1        -0.5679046298E-01      0.1312241642E+00
          0                 3           1             4   13     1       0.6452189290E-04       4   13    1         0.3919127696E-02      0.8981162101E-02

    ------------------------------------------------
       NWT REQUIRED            3 OUTER ITERATIONS 
       AND A TOTAL OF          5 INNER ITERATIONS.
    ------------------------------------------------

 NO OUTPUT CONTROL FOR STRESS PERIOD   16   TIME STEP    1
 
 SOLVING FOR HEAD 
                                                   Max.-Head-Change                         Max.-Flux-Residual
  Residual-Control   Outer-Iter.   Inner-Iter.     Column Row Layer    Maximum-Head-Change  Column Row Layer    Maximum-Flux-Residual          L2-NORM 
          0                 1           2             4   13     1       0.9038548695E-02       4   13    1         0.5190592308E+00      0.1272266908E+01
          0                 2           2             4   13     1      -0.8700516469E-03       4   13    1        -0.5137304059E-01      0.1252671849E+00
          0                 3           1             4   13     1       0.5839652817E-04       4   13    1         0.3545186199E-02      0.8587382182E-02

    ------------------------------------------------
       NWT REQUIRED            3 OUTER ITERATIONS 
       AND A TOTAL OF          5 INNER ITERATIONS.
    ------------------------------------------------

 NO OUTPUT CONTROL FOR STRESS PERIOD   16   TIME STEP    2
 
 SOLVING FOR HEAD 
                                                   Max.-Head-Change                         Max.-Flux-Residual
  Residual-Control   Outer-Iter.   Inner-Iter.     Column Row Layer    Maximum-Head-Change  Column Row Layer    Maximum-Flux-Residual          L2-NORM 
          0                 1           2             2   13     1       0.8309937541E-02       4   13    1         0.4698081980E+00      0.1217084739E+01
          0                 2           2             4   13     1      -0.7878640950E-03       4   13    1        -0.4649495266E-01      0.1199704749E+00
          0                 3           1             4   13     1       0.5285416165E-04       4   13    1         0.3206934717E-02      0.8236789025E-02

    ------------------------------------------------
       NWT REQUIRED            3 OUTER ITERATIONS 
       AND A TOTAL OF          5 INNER ITERATIONS.
    ------------------------------------------------

 NO OUTPUT CONTROL FOR STRESS PERIOD   16   TIME STEP    3
 
 SOLVING FOR HEAD 
                                                   Max.-Head-Change                         Max.-Flux-Residual
  Residual-Control   Outer-Iter.   Inner-Iter.     Column Row Layer    Maximum-Head-Change  Column Row Layer    Maximum-Flux-Residual          L2-NORM 
          0                 1           2             2   13     1       0.7686485216E-02       2   13    1         0.4330157597E+00      0.1168014629E+01
          0                 2           2             2   13     1      -0.7148295812E-03       4   13    1        -0.4210325552E-01      0.1152644054E+00
          0                 3           1             4   13     1       0.4789438178E-04       4   13    1         0.2904359408E-02      0.7926250593E-02

    ------------------------------------------------
       NWT REQUIRED            3 OUTER ITERATIONS 
       AND A TOTAL OF          5 INNER ITERATIONS.
    ------------------------------------------------

 NO OUTPUT CONTROL FOR STRESS PERIOD   16   TIME STEP    4
 
 SOLVING FOR HEAD 
                                                   Max.-Head-Change                         Max.-Flux-Residual
  Residual-Control   Outer-Iter.   Inner-Iter.     Column Row Layer    Maximum-Head-Change  Column Row Layer    Maximum-Flux-Residual          L2-NORM 
          0                 1           2             2   13     1       0.7102757848E-02       2   13    1         0.4000839987E+00      0.1124243879E+01
          0                 2           2             2   13     1      -0.6536213381E-03       4   13    1        -0.3814731862E-01      0.1109232210E+00
          0                 3           1             4   13     1       0.4342570912E-04       4   13    1         0.2631825608E-02      0.7640729464E-02

    ------------------------------------------------
       NWT REQUIRED            3 OUTER ITERATIONS 
       AND A TOTAL OF          5 INNER ITERATIONS.
    ------------------------------------------------

 NO OUTPUT CONTROL FOR STRESS PERIOD   16   TIME STEP    5
 
 SOLVING FOR HEAD 
                                                   Max.-Head-Change                         Max.-Flux-Residual
  Residual-Control   Outer-Iter.   Inner-Iter.     Column Row Layer    Maximum-Head-Change  Column Row Layer    Maximum-Flux-Residual          L2-NORM 
          0                 1           2             2   13     1       0.6577508588E-02       2   13    1         0.3704631439E+00      0.1085595202E+01
          0                 2           2             2   13     1      -0.6122837470E-03       2   13    1        -0.3544862399E-01      0.1073627748E+00
          0                 3           1             4   13     1       0.3937483745E-04       4   13    1         0.2384873779E-02      0.7404579085E-02

    ------------------------------------------------
       NWT REQUIRED            3 OUTER ITERATIONS 
       AND A TOTAL OF          5 INNER ITERATIONS.
    ------------------------------------------------

 NO OUTPUT CONTROL FOR STRESS PERIOD   16   TIME STEP    6
 
 SOLVING FOR HEAD 
                                                   Max.-Head-Change                         Max.-Flux-Residual
  Residual-Control   Outer-Iter.   Inner-Iter.     Column Row Layer    Maximum-Head-Change  Column Row Layer    Maximum-Flux-Residual          L2-NORM 
          0                 1           2             2   13     1       0.6085163235E-02       2   13    1         0.3426942907E+00      0.1051078711E+01
          0                 2           2             2   13     1      -0.5667000628E-03       2   13    1        -0.3280565479E-01      0.1040551459E+00
          0                 3           1             2   13     1       0.3626503882E-04       4   13    1         0.2163987340E-02      0.7187356415E-02

    ------------------------------------------------
       NWT REQUIRED            3 OUTER ITERATIONS 
       AND A TOTAL OF          5 INNER ITERATIONS.
    ------------------------------------------------

 NO OUTPUT CONTROL FOR STRESS PERIOD   16   TIME STEP    7
 
 SOLVING FOR HEAD 
                                                   Max.-Head-Change                         Max.-Flux-Residual
  Residual-Control   Outer-Iter.   Inner-Iter.     Column Row Layer    Maximum-Head-Change  Column Row Layer    Maximum-Flux-Residual          L2-NORM 
          0                 1           2             2   13     1       0.5630131126E-02       2   13    1         0.3170314916E+00      0.1020352337E+01
          0                 2           2             2   13     1      -0.5245336180E-03       2   13    1        -0.3036099745E-01      0.1011098361E+00
          0                 3           1             4    7     1       0.3571197859E-04       2   13    1         0.1998522747E-02      0.6993039466E-02

    ------------------------------------------------
       NWT REQUIRED            3 OUTER ITERATIONS 
       AND A TOTAL OF          5 INNER ITERATIONS.
    ------------------------------------------------

 NO OUTPUT CONTROL FOR STRESS PERIOD   16   TIME STEP    8
 
 SOLVING FOR HEAD 
                                                   Max.-Head-Change                         Max.-Flux-Residual
  Residual-Control   Outer-Iter.   Inner-Iter.     Column Row Layer    Maximum-Head-Change  Column Row Layer    Maximum-Flux-Residual          L2-NORM 
          0                 1           2             4    7     1       0.5349280043E-02       2   13    1         0.2933182063E+00      0.9929526945E+00
          0                 2           2             4    7     1      -0.5203396071E-03       2   13    1        -0.2810095455E-01      0.9848363581E-01
          0                 3           1             4    7     1       0.3543319274E-04       4    7    1         0.1960940714E-02      0.6818593034E-02

    ------------------------------------------------
       NWT REQUIRED            3 OUTER ITERATIONS 
       AND A TOTAL OF          5 INNER ITERATIONS.
    ------------------------------------------------

 NO OUTPUT CONTROL FOR STRESS PERIOD   16   TIME STEP    9
 
 SOLVING FOR HEAD 
                                                   Max.-Head-Change                         Max.-Flux-Residual
  Residual-Control   Outer-Iter.   Inner-Iter.     Column Row Layer    Maximum-Head-Change  Column Row Layer    Maximum-Flux-Residual          L2-NORM 
          0                 1           2             4    7     1       0.5307669709E-02       4    7    1         0.2779370380E+00      0.9684922549E+00
          0                 2           2             4    7     1      -0.5162920460E-03       4    7    1        -0.2779373871E-01      0.9613780722E-01
          0                 3           1             4    7     1       0.3515756920E-04       4    7    1         0.1945562231E-02      0.6663960977E-02

    ------------------------------------------------
       NWT REQUIRED            3 OUTER ITERATIONS 
       AND A TOTAL OF          5 INNER ITERATIONS.
    ------------------------------------------------

 NO OUTPUT CONTROL FOR STRESS PERIOD   16   TIME STEP   10
 
 SOLVING FOR HEAD 
                                                   Max.-Head-Change                         Max.-Flux-Residual
  Residual-Control   Outer-Iter.   Inner-Iter.     Column Row Layer    Maximum-Head-Change  Column Row Layer    Maximum-Flux-Residual          L2-NORM 
          0                 1           2             4    7     1       0.5266931122E-02       4    7    1         0.2757869501E+00      0.9466063878E+00
          0                 2           2             4    7     1      -0.5123292816E-03       4    7    1        -0.2757872920E-01      0.9403815071E-01
          0                 3           1             4    7     1       0.3488771943E-04       4    7    1         0.1930511551E-02      0.6525362984E-02

    ------------------------------------------------
       NWT REQUIRED            3 OUTER ITERATIONS 
       AND A TOTAL OF          5 INNER ITERATIONS.
    ------------------------------------------------

 NO OUTPUT CONTROL FOR STRESS PERIOD   16   TIME STEP   11
 
 SOLVING FOR HEAD 
                                                   Max.-Head-Change                         Max.-Flux-Residual
  Residual-Control   Outer-Iter.   Inner-Iter.     Column Row Layer    Maximum-Head-Change  Column Row Layer    Maximum-Flux-Residual          L2-NORM 
          0                 1           2             4    7     1       0.5226626756E-02       4    7    1         0.2736599805E+00      0.9269750536E+00
          0                 2           2             4    7     1      -0.5084087550E-03       4    7    1        -0.2736603152E-01      0.9215300520E-01
          0                 3           1             4    7     1       0.3462074630E-04       4    7    1         0.1915622705E-02      0.6400754424E-02

    ------------------------------------------------
       NWT REQUIRED            3 OUTER ITERATIONS 
       AND A TOTAL OF          5 INNER ITERATIONS.
    ------------------------------------------------

 NO OUTPUT CONTROL FOR STRESS PERIOD   16   TIME STEP   12
 
 SOLVING FOR HEAD 
                                                   Max.-Head-Change                         Max.-Flux-Residual
  Residual-Control   Outer-Iter.   Inner-Iter.     Column Row Layer    Maximum-Head-Change  Column Row Layer    Maximum-Flux-Residual          L2-NORM 
          0                 1           2             4    7     1       0.5187018957E-02       4    7    1         0.2715702451E+00      0.9093246721E+00
          0                 2           2             4    7     1      -0.5045559869E-03       4    7    1        -0.2715705734E-01      0.9045497692E-01
          0                 3           1             4    7     1       0.3435838747E-04       4    7    1         0.1900994527E-02      0.6286902689E-02

    ------------------------------------------------
       NWT REQUIRED            3 OUTER ITERATIONS 
       AND A TOTAL OF          5 INNER ITERATIONS.
    ------------------------------------------------

 NO OUTPUT CONTROL FOR STRESS PERIOD   16   TIME STEP   13
 
 SOLVING FOR HEAD 
                                                   Max.-Head-Change                         Max.-Flux-Residual
  Residual-Control   Outer-Iter.   Inner-Iter.     Column Row Layer    Maximum-Head-Change  Column Row Layer    Maximum-Flux-Residual          L2-NORM 
          0                 1           2             4    7     1       0.5147951534E-02       4    7    1         0.2695092654E+00      0.8934098360E+00
          0                 2           2             4    7     1      -0.5007557816E-03       4    7    1        -0.2695095868E-01      0.8892761969E-01
          0                 3           1             4    7     1       0.3409960749E-04       4    7    1         0.1886567614E-02      0.6189286585E-02

    ------------------------------------------------
       NWT REQUIRED            3 OUTER ITERATIONS 
       AND A TOTAL OF          5 INNER ITERATIONS.
    ------------------------------------------------

 NO OUTPUT CONTROL FOR STRESS PERIOD   16   TIME STEP   14
 
 SOLVING FOR HEAD 
                                                   Max.-Head-Change                         Max.-Flux-Residual
  Residual-Control   Outer-Iter.   Inner-Iter.     Column Row Layer    Maximum-Head-Change  Column Row Layer    Maximum-Flux-Residual          L2-NORM 
          0                 1           2             4    7     1       0.5109543305E-02       4    7    1         0.2674836638E+00      0.8790065344E+00
          0                 2           2             4    7     1      -0.4970196988E-03       4    7    1        -0.2674839790E-01      0.8753685327E-01
          0                 3           1             4    7     1       0.3384519414E-04       4    7    1         0.1872388346E-02      0.6093755616E-02

    ------------------------------------------------
       NWT REQUIRED            3 OUTER ITERATIONS 
       AND A TOTAL OF          5 INNER ITERATIONS.
    ------------------------------------------------

 NO OUTPUT CONTROL FOR STRESS PERIOD   16   TIME STEP   15
 
 SOLVING FOR HEAD 
                                                   Max.-Head-Change                         Max.-Flux-Residual
  Residual-Control   Outer-Iter.   Inner-Iter.     Column Row Layer    Maximum-Head-Change  Column Row Layer    Maximum-Flux-Residual          L2-NORM 
          0                 1           2             4    7     1       0.5071642527E-02       4    7    1         0.2654848801E+00      0.8659293376E+00
          0                 2           2             4    7     1      -0.4933329780E-03       4    7    1        -0.2654851891E-01      0.8627525591E-01
          0                 3           1             4    7     1       0.3359414261E-04       4    7    1         0.1858396834E-02      0.6010213008E-02

    ------------------------------------------------
       NWT REQUIRED            3 OUTER ITERATIONS 
       AND A TOTAL OF          5 INNER ITERATIONS.
    ------------------------------------------------

 NO OUTPUT CONTROL FOR STRESS PERIOD   16   TIME STEP   16
 
 SOLVING FOR HEAD 
                                                   Max.-Head-Change                         Max.-Flux-Residual
  Residual-Control   Outer-Iter.   Inner-Iter.     Column Row Layer    Maximum-Head-Change  Column Row Layer    Maximum-Flux-Residual          L2-NORM 
          0                 1           2             4    7     1       0.5034368114E-02       4    7    1         0.2635197676E+00      0.8540135066E+00
          0                 2           2             4    7     1      -0.4897071855E-03       4    7    1        -0.2635200706E-01      0.8512385301E-01
          0                 3           1             4    7     1       0.3334724008E-04       4    7    1         0.1844641018E-02      0.5932814415E-02

    ------------------------------------------------
       NWT REQUIRED            3 OUTER ITERATIONS 
       AND A TOTAL OF          5 INNER ITERATIONS.
    ------------------------------------------------

 NO OUTPUT CONTROL FOR STRESS PERIOD   16   TIME STEP   17
 
 SOLVING FOR HEAD 
                                                   Max.-Head-Change                         Max.-Flux-Residual
  Residual-Control   Outer-Iter.   Inner-Iter.     Column Row Layer    Maximum-Head-Change  Column Row Layer    Maximum-Flux-Residual          L2-NORM 
          0                 1           2             4    7     1       0.4997564056E-02       4    7    1         0.2615797705E+00      0.8431076184E+00
          0                 2           2             4    7     1      -0.4861271450E-03       4    7    1        -0.2615800675E-01      0.8406861743E-01
          0                 3           1             4    7     1       0.3310345218E-04       4    7    1         0.1831060987E-02      0.5862603946E-02

    ------------------------------------------------
       NWT REQUIRED            3 OUTER ITERATIONS 
       AND A TOTAL OF          5 INNER ITERATIONS.
    ------------------------------------------------

 NO OUTPUT CONTROL FOR STRESS PERIOD   16   TIME STEP   18
 
 SOLVING FOR HEAD 
                                                   Max.-Head-Change                         Max.-Flux-Residual
  Residual-Control   Outer-Iter.   Inner-Iter.     Column Row Layer    Maximum-Head-Change  Column Row Layer    Maximum-Flux-Residual          L2-NORM 
          0                 1           2             4    7     1       0.4961222790E-02       4    7    1         0.2596641606E+00      0.8330926008E+00
          0                 2           2             4    7     1      -0.4825921225E-03       4    7    1        -0.2596644522E-01      0.8309745765E-01
          0                 3           1             4    7     1       0.3286273037E-04       4    7    1         0.1817651670E-02      0.5797350492E-02

    ------------------------------------------------
       NWT REQUIRED            3 OUTER ITERATIONS 
       AND A TOTAL OF          5 INNER ITERATIONS.
    ------------------------------------------------

 NO OUTPUT CONTROL FOR STRESS PERIOD   16   TIME STEP   19
 
 SOLVING FOR HEAD 
                                                   Max.-Head-Change                         Max.-Flux-Residual
  Residual-Control   Outer-Iter.   Inner-Iter.     Column Row Layer    Maximum-Head-Change  Column Row Layer    Maximum-Flux-Residual          L2-NORM 
          0                 1           2             4    7     1       0.4925466396E-02       4    7    1         0.2577799067E+00      0.8238585339E+00
          0                 2           2             4    7     1      -0.4791139920E-03       4    7    1        -0.2577801927E-01      0.8220237700E-01
          0                 3           1             4    7     1       0.3262588267E-04       4    7    1         0.1804461854E-02      0.5737167940E-02

    ------------------------------------------------
       NWT REQUIRED            3 OUTER ITERATIONS 
       AND A TOTAL OF          5 INNER ITERATIONS.
    ------------------------------------------------

 NO OUTPUT CONTROL FOR STRESS PERIOD   16   TIME STEP   20
 
 SOLVING FOR HEAD 
                                                   Max.-Head-Change                         Max.-Flux-Residual
  Residual-Control   Outer-Iter.   Inner-Iter.     Column Row Layer    Maximum-Head-Change  Column Row Layer    Maximum-Flux-Residual          L2-NORM 
          0                 1           2             4    7     1       0.4890142806E-02       4    7    1         0.2559186167E+00      0.8153090251E+00
          0                 2           2             4    7     1      -0.4756779682E-03       4    7    1        -0.2559188973E-01      0.8138393417E-01
          0                 3           1             4    7     1       0.3239190274E-04       4    7    1         0.1791432795E-02      0.5682046162E-02

    ------------------------------------------------
       NWT REQUIRED            3 OUTER ITERATIONS 
       AND A TOTAL OF          5 INNER ITERATIONS.
    ------------------------------------------------

 NO OUTPUT CONTROL FOR STRESS PERIOD   16   TIME STEP   21
 
 SOLVING FOR HEAD 
                                                   Max.-Head-Change                         Max.-Flux-Residual
  Residual-Control   Outer-Iter.   Inner-Iter.     Column Row Layer    Maximum-Head-Change  Column Row Layer    Maximum-Flux-Residual          L2-NORM 
          0                 1           2             4    7     1       0.4855373951E-02       4    7    1         0.2540871277E+00      0.8073464532E+00
          0                 2           2             4    7     1      -0.4722958929E-03       4    7    1        -0.2540874030E-01      0.8059289100E-01
          0                 3           1             4    7     1       0.3216159574E-04       4    7    1         0.1778612323E-02      0.5628443880E-02

    ------------------------------------------------
       NWT REQUIRED            3 OUTER ITERATIONS 
       AND A TOTAL OF          5 INNER ITERATIONS.
    ------------------------------------------------

 NO OUTPUT CONTROL FOR STRESS PERIOD   16   TIME STEP   22
 
 SOLVING FOR HEAD 
                                                   Max.-Head-Change                         Max.-Flux-Residual
  Residual-Control   Outer-Iter.   Inner-Iter.     Column Row Layer    Maximum-Head-Change  Column Row Layer    Maximum-Flux-Residual          L2-NORM 
          0                 1           2             4    7     1       0.4821148169E-02       4    7    1         0.2522844015E+00      0.7999163609E+00
          0                 2           2             4    7     1      -0.4689666504E-03       4    7    1        -0.2522846719E-01      0.7986737902E-01
          0                 3           1             4    7     1       0.3193488689E-04       4    7    1         0.1765993207E-02      0.5579260604E-02

    ------------------------------------------------
       NWT REQUIRED            3 OUTER ITERATIONS 
       AND A TOTAL OF          5 INNER ITERATIONS.
    ------------------------------------------------

 NO OUTPUT CONTROL FOR STRESS PERIOD   16   TIME STEP   23
 
 SOLVING FOR HEAD 
                                                   Max.-Head-Change                         Max.-Flux-Residual
  Residual-Control   Outer-Iter.   Inner-Iter.     Column Row Layer    Maximum-Head-Change  Column Row Layer    Maximum-Flux-Residual          L2-NORM 
          0                 1           2             4    7     1       0.4787176987E-02       4    7    1         0.2504951104E+00      0.7929519108E+00
          0                 2           2             4    7     1      -0.4656621732E-03       4    7    1        -0.2504953757E-01      0.7918643055E-01
          0                 3           1             4    7     1       0.3170986422E-04       4    7    1         0.1753468131E-02      0.5533030519E-02

    ------------------------------------------------
       NWT REQUIRED            3 OUTER ITERATIONS 
       AND A TOTAL OF          5 INNER ITERATIONS.
    ------------------------------------------------

 NO OUTPUT CONTROL FOR STRESS PERIOD   16   TIME STEP   24
 
 SOLVING FOR HEAD 
                                                   Max.-Head-Change                         Max.-Flux-Residual
  Residual-Control   Outer-Iter.   Inner-Iter.     Column Row Layer    Maximum-Head-Change  Column Row Layer    Maximum-Flux-Residual          L2-NORM 
          0                 1           2             4    7     1       0.4753864267E-02       4    7    1         0.2487411035E+00      0.7864028189E+00
          0                 2           2             4    7     1      -0.4624217470E-03       4    7    1        -0.2487413641E-01      0.7854482429E-01
          0                 3           1             4    7     1       0.3148920319E-04       4    7    1         0.1741190055E-02      0.5489459318E-02

    ------------------------------------------------
       NWT REQUIRED            3 OUTER ITERATIONS 
       AND A TOTAL OF          5 INNER ITERATIONS.
    ------------------------------------------------

 NO OUTPUT CONTROL FOR STRESS PERIOD   16   TIME STEP   25
 
 SOLVING FOR HEAD 
                                                   Max.-Head-Change                         Max.-Flux-Residual
  Residual-Control   Outer-Iter.   Inner-Iter.     Column Row Layer    Maximum-Head-Change  Column Row Layer    Maximum-Flux-Residual          L2-NORM 
          0                 1           2             4    7     1       0.4720920922E-02       4    7    1         0.2470065144E+00      0.7802262729E+00
          0                 2           2             4    7     1      -0.4592172508E-03       4    7    1        -0.2470067704E-01      0.7793918583E-01
          0                 3           1             4    7     1       0.3127098902E-04       4    7    1         0.1729047890E-02      0.5447876542E-02

    ------------------------------------------------
       NWT REQUIRED            3 OUTER ITERATIONS 
       AND A TOTAL OF          5 INNER ITERATIONS.
    ------------------------------------------------

 NO OUTPUT CONTROL FOR STRESS PERIOD   16   TIME STEP   26
 
 SOLVING FOR HEAD 
                                                   Max.-Head-Change                         Max.-Flux-Residual
  Residual-Control   Outer-Iter.   Inner-Iter.     Column Row Layer    Maximum-Head-Change  Column Row Layer    Maximum-Flux-Residual          L2-NORM 
          0                 1           2             4    7     1       0.4688335845E-02       4    7    1         0.2452910770E+00      0.7743761552E+00
          0                 2           2             4    7     1      -0.4560476045E-03       4    7    1        -0.2452913282E-01      0.7736391947E-01
          0                 3           1             4    7     1       0.3105514808E-04       4    7    1         0.1717039796E-02      0.5408565590E-02

    ------------------------------------------------
       NWT REQUIRED            3 OUTER ITERATIONS 
       AND A TOTAL OF          5 INNER ITERATIONS.
    ------------------------------------------------

 NO OUTPUT CONTROL FOR STRESS PERIOD   16   TIME STEP   27
 
 SOLVING FOR HEAD 
                                                   Max.-Head-Change                         Max.-Flux-Residual
  Residual-Control   Outer-Iter.   Inner-Iter.     Column Row Layer    Maximum-Head-Change  Column Row Layer    Maximum-Flux-Residual          L2-NORM 
          0                 1           2             4    7     1       0.4656236256E-02       4    7    1         0.2436015766E+00      0.7688163928E+00
          0                 2           2             4    7     1      -0.4529251832E-03       4    7    1        -0.2436018235E-01      0.7681678389E-01
          0                 3           1             4    7     1       0.3084252259E-04       4    7    1         0.1705213264E-02      0.5371079794E-02

    ------------------------------------------------
       NWT REQUIRED            3 OUTER ITERATIONS 
       AND A TOTAL OF          5 INNER ITERATIONS.
    ------------------------------------------------

 NO OUTPUT CONTROL FOR STRESS PERIOD   16   TIME STEP   28
 
 SOLVING FOR HEAD 
                                                   Max.-Head-Change                         Max.-Flux-Residual
  Residual-Control   Outer-Iter.   Inner-Iter.     Column Row Layer    Maximum-Head-Change  Column Row Layer    Maximum-Flux-Residual          L2-NORM 
          0                 1           2             4    7     1       0.4624476798E-02       4    7    1         0.2419298866E+00      0.7635163281E+00
          0                 2           2             4    7     1      -0.4498358479E-03       4    7    1        -0.2419301291E-01      0.7629470678E-01
          0                 3           1             4    7     1       0.3063215034E-04       4    7    1         0.1693511406E-02      0.5335400111E-02

    ------------------------------------------------
       NWT REQUIRED            3 OUTER ITERATIONS 
       AND A TOTAL OF          5 INNER ITERATIONS.
    ------------------------------------------------

 NO OUTPUT CONTROL FOR STRESS PERIOD   16   TIME STEP   29
 
 SOLVING FOR HEAD 
                                                   Max.-Head-Change                         Max.-Flux-Residual
  Residual-Control   Outer-Iter.   Inner-Iter.     Column Row Layer    Maximum-Head-Change  Column Row Layer    Maximum-Flux-Residual          L2-NORM 
          0                 1           2             4    7     1       0.4593158922E-02       4    7    1         0.2402831935E+00      0.7327145063E+00
          0                 2           2             4    7     1      -0.4467894666E-03       4    7    1        -0.2402834320E-01      0.7326957004E-01
          0                 3           1             4    7     1       0.3042470397E-04       4    7    1         0.1681984536E-02      0.5128699766E-02

    ------------------------------------------------
       NWT REQUIRED            3 OUTER ITERATIONS 
       AND A TOTAL OF          5 INNER ITERATIONS.
    ------------------------------------------------

 NO OUTPUT CONTROL FOR STRESS PERIOD   16   TIME STEP   30



 STREAM LISTING     PERIOD     16   STEP       30

 LAYER ROW COL. STREAM  RCH.  FLOW INTO     FLOW TO   FLOW OUT OF   OVRLND.     DIRECT     STREAM       STREAM     STREAM     STREAM   STREAMBED  STREAMBED
                SEG.NO.  NO.  STRM. RCH.    AQUIFER    STRM. RCH.    RUNOFF     PRECIP       ET          HEAD       DEPTH      WIDTH   CONDCTNC.   GRADIENT

   1    1    1     1     1    3.3171E+01  2.7949E-01   3.2891E+01  0.000E+00  0.000E+00  0.000E+00  1.09432E+03  1.277E+00  1.452E+01  6.535E-02  1.426E+00
   1    2    2     1     2    3.2891E+01  4.3266E-01   3.2458E+01  0.000E+00  0.000E+00  0.000E+00  1.08933E+03  1.274E+00  1.446E+01  1.012E-01  1.425E+00
   1    3    3     1     3    3.2458E+01  3.6882E-01   3.2090E+01  0.000E+00  0.000E+00  0.000E+00  1.08369E+03  1.270E+00  1.439E+01  8.637E-02  1.423E+00
   1    3    4     1     4    3.2090E+01  3.3948E-01   3.1750E+01  0.000E+00  0.000E+00  0.000E+00  1.07868E+03  1.267E+00  1.433E+01  7.955E-02  1.422E+00
   1    4    5     2     1    2.9750E+01  3.3819E-01   2.9412E+01  0.000E+00  0.000E+00  0.000E+00  1.07327E+03  1.336E+00  1.200E+01  7.800E-02  1.445E+00
   1    5    6     2     2    2.9412E+01  2.5966E-01   2.9152E+01  0.000E+00  0.000E+00  0.000E+00  1.06784E+03  1.328E+00  1.200E+01  6.000E-02  1.443E+00
   1    6    6     2     3    2.9152E+01  2.5924E-01   2.8893E+01  0.000E+00  0.000E+00  0.000E+00  1.06311E+03  1.321E+00  1.200E+01  6.000E-02  1.440E+00
   1    7    6     2     4    2.8893E+01  2.5881E-01   2.8634E+01  0.000E+00  0.000E+00  0.000E+00  1.05839E+03  1.314E+00  1.200E+01  6.000E-02  1.438E+00
   1    8    6     2     5    2.8634E+01  2.5839E-01   2.8376E+01  0.000E+00  0.000E+00  0.000E+00  1.05367E+03  1.306E+00  1.200E+01  6.000E-02  1.435E+00
   1    3    5     3     1    2.0000E+00  2.8252E-01   1.7175E+00  0.000E+00  0.000E+00  0.000E+00  1.07555E+03  1.909E+00  9.636E+00  7.227E-02  1.955E+00
   1    3    6     3     2    1.7175E+00  2.4905E-01   1.4684E+00  0.000E+00  0.000E+00  0.000E+00  1.07264E+03  1.727E+00  8.909E+00  6.682E-02  1.864E+00
   1    3    7     3     3    1.4684E+00  1.9718E-01   1.2712E+00  0.000E+00  0.000E+00  0.000E+00  1.06987E+03  1.555E+00  8.218E+00  5.547E-02  1.777E+00
   1    4    8     3     4    1.2712E+00  2.2567E-01   1.0456E+00  0.000E+00  0.000E+00  0.000E+00  1.06682E+03  1.364E+00  7.455E+00  6.709E-02  1.682E+00
   1    5    8     3     5    1.0456E+00  1.5790E-01   8.8768E-01  0.000E+00  0.000E+00  0.000E+00  1.06362E+03  1.164E+00  6.655E+00  4.991E-02  1.582E+00
   1    6    8     3     6    8.8768E-01  5.5980E-02   8.3170E-01  0.000E+00  0.000E+00  0.000E+00  1.06158E+03  1.036E+00  6.145E+00  1.844E-02  1.518E+00
   1    5   10     4     1    1.0000E+01  9.0919E-02   9.9091E+00  0.000E+00  0.000E+00  0.000E+00  1.07836E+03  6.368E-01  1.000E+01  2.500E-02  1.212E+00
   1    5    9     4     2    9.9091E+00  1.8158E-01   9.7275E+00  0.000E+00  0.000E+00  0.000E+00  1.07154E+03  6.315E-01  1.000E+01  5.000E-02  1.211E+00
   1    6    8     4     3    9.7275E+00  1.2689E-01   9.6006E+00  0.000E+00  0.000E+00  0.000E+00  1.06381E+03  6.256E-01  1.000E+01  3.500E-02  1.209E+00
   1    6    8     5     1    1.0432E+01  2.2686E-01   1.0205E+01  0.000E+00  0.000E+00  0.000E+00  1.05868E+03  6.790E-01  1.542E+01  6.166E-02  1.226E+00
   1    7    7     5     2    1.0205E+01  2.7894E-01   9.9265E+00  0.000E+00  0.000E+00  0.000E+00  1.05417E+03  6.732E-01  1.519E+01  7.594E-02  1.224E+00
   1    8    7     5     3    9.9265E+00  1.9221E-01   9.7343E+00  0.000E+00  0.000E+00  0.000E+00  1.04992E+03  6.676E-01  1.497E+01  5.241E-02  1.223E+00
   1    8    6     5     4    9.7343E+00  1.3577E-01   9.5985E+00  0.000E+00  0.000E+00  0.000E+00  1.04691E+03  6.637E-01  1.482E+01  3.706E-02  1.221E+00
   1    9    6     6     1    3.7974E+01  2.7395E-01   3.7700E+01  0.000E+00  0.000E+00  0.000E+00  1.04429E+03  1.566E+00  1.200E+01  6.000E-02  1.522E+00
   1   10    7     6     2    3.7700E+01  2.7354E-01   3.7427E+01  0.000E+00  0.000E+00  0.000E+00  1.03974E+03  1.559E+00  1.200E+01  6.000E-02  1.520E+00
   1   11    7     6     3    3.7427E+01  2.7313E-01   3.7154E+01  0.000E+00  0.000E+00  0.000E+00  1.03519E+03  1.552E+00  1.200E+01  6.000E-02  1.517E+00
   1   12    7     6     4    3.7154E+01  2.7272E-01   3.6881E+01  0.000E+00  0.000E+00  0.000E+00  1.03064E+03  1.545E+00  1.200E+01  6.000E-02  1.515E+00
   1   13    7     6     5    3.6881E+01  1.5180E-02   3.6866E+01  0.000E+00  0.000E+00  0.000E+00  1.02745E+03  1.542E+00  1.200E+01  2.400E-02  2.108E-01
   1   14    9     7     1    1.5000E+02  1.3705E+00   1.4863E+02  0.000E+00  0.000E+00  0.000E+00  1.03987E+03  2.288E+00  5.529E+01  5.593E-01  8.168E-01
   1   13    8     7     2    1.4863E+02  1.9256E+00   1.4670E+02  0.000E+00  0.000E+00  0.000E+00  1.03478E+03  2.279E+00  5.525E+01  6.148E-01  1.044E+00
   1   13    7     7     3    1.4670E+02  1.6029E+00   1.4510E+02  0.000E+00  0.000E+00  0.000E+00  1.02969E+03  2.269E+00  5.521E+01  5.584E-01  9.568E-01
   1   13    6     8     1    1.8197E+02  1.0956E+00   1.8087E+02  0.000E+00  0.000E+00  0.000E+00  1.02490E+03  3.025E+00  4.386E+01  4.470E-01  8.171E-01
   1   13    5     8     2    1.8087E+02  3.1165E-01   1.8056E+02  0.000E+00  0.000E+00  0.000E+00  1.01865E+03  3.021E+00  4.380E+01  4.463E-01  2.327E-01
   1   13    4     8     3    1.8056E+02 -2.0740E+00   1.8263E+02  0.000E+00  0.000E+00  0.000E+00  1.01240E+03  3.026E+00  4.388E+01  4.471E+00 -1.546E-01
   1   13    3     8     4    1.8263E+02 -3.4741E+00   1.8611E+02  0.000E+00  0.000E+00  0.000E+00  1.00617E+03  3.043E+00  4.413E+01  4.497E+00 -2.575E-01
   1   13    2     8     5    1.8611E+02 -2.5223E+00   1.8863E+02  0.000E+00  0.000E+00  0.000E+00  9.99937E+02  3.062E+00  4.440E+01  4.524E+00 -1.858E-01
   1   13    1     8     6    1.8863E+02 -1.9242E+00   1.9055E+02  0.000E+00  0.000E+00  0.000E+00  9.94950E+02  3.075E+00  4.459E+01  2.727E+00 -2.352E-01
   1    8    6     9     1    0.0000E+00  0.0000E+00   0.0000E+00  0.000E+00  0.000E+00  0.000E+00  1.07875E+03  0.000E+00  4.000E+00  0.000E+00  1.000E+00
   1    8    5     9     2    0.0000E+00  0.0000E+00   0.0000E+00  0.000E+00  0.000E+00  0.000E+00  1.07825E+03  0.000E+00  4.000E+00  0.000E+00  1.000E+00





UNSATURATED ZONE PACKAGE VOLUMETRIC BUDGET FOR  TIME STEP    30 STRESS PERIOD   16
  ------------------------------------------------------------------------------



     CUMULATIVE VOLUMES      L**3       RATES FOR THIS TIME STEP      L**3/T
     ------------------                 ------------------------

           IN:                                      IN:
           ---                                      ---
        INFILTRATION =   438474075.8121          INFILTRATION =           0.8475

          OUT:                                     OUT:
          ----                                     ----
              UZF ET =   435931613.7029                UZF ET =           0.7500
        UZF RECHARGE =       73224.0000          UZF RECHARGE =       0.0000E+00

            IN - OUT =     2469238.1091              IN - OUT =       9.7500E-02

          STORAGE:                                 STORAGE:
          --------                                 --------
      STORAGE CHANGE =     2469241.2490        STORAGE CHANGE =       9.7500E-02

 PERCENT DISCREPANCY IS DIFFERENCE BETWEEN IN-OUT MINUS CHANGE IN STORAGE
 DIVIDED BY THE AVERAGE OF IN AND OUT TIMES 100

 PERCENT DISCREPANCY =           0.00     PERCENT DISCREPANCY =           0.00






1
  VOLUMETRIC BUDGET FOR AGRICULTURAL FIELDS AT  END OF TIME STEP   30, STRESS PERIOD  16
  ------------------------------------------------------------------------------

     CUMULATIVE VOLUMES      L**3       RATES FOR THIS TIME STEP      L**3/T
     ------------------                 ------------------------

           IN:                                      IN:
           ---                                      ---
           AG WELLS      =   178258384.0000             AG WELLS      =           0.0000
      DIVERSION SEGMENTS =   226725392.0000        DIVERSION SEGMENTS =           0.0000
           GW IRRIGATION =           0.0000             GW IRRIGATION =           0.0000
           SW IRRIGATION =           0.0000             SW IRRIGATION =           0.0000
        SYSTEM LOSSES GW =           0.0000          SYSTEM LOSSES GW =           0.0000
        SYSTEM LOSSES SW =           0.0000          SYSTEM LOSSES SW =           0.0000

                TOTAL IN =   404983776.0000                  TOTAL IN =           0.0000

          OUT:                                     OUT:
          ----                                     ----
           AG WELLS      =           0.0000             AG WELLS      =           0.0000
      DIVERSION SEGMENTS =           0.0000        DIVERSION SEGMENTS =           0.0000
           GW IRRIGATION =   178258384.0000             GW IRRIGATION =           0.0000
           SW IRRIGATION =   226729728.0000             SW IRRIGATION =           0.0000
        SYSTEM LOSSES GW =           0.0000          SYSTEM LOSSES GW =           0.0000
        SYSTEM LOSSES SW =           0.0000          SYSTEM LOSSES SW =           0.0000

               TOTAL OUT =   404988096.0000                 TOTAL OUT =           0.0000

                IN - OUT =       -4320.0000                  IN - OUT =           0.0000

     PERCENT DISCREPANCY =          -0.00         PERCENT DISCREPANCY =           0.00



1
  VOLUMETRIC BUDGET FOR ENTIRE MODEL AT END OF TIME STEP   30, STRESS PERIOD  16
  ------------------------------------------------------------------------------

     CUMULATIVE VOLUMES      L**3       RATES FOR THIS TIME STEP      L**3/T
     ------------------                 ------------------------

           IN:                                      IN:
           ---                                      ---
             STORAGE     =   273232256.0000               STORAGE     =           1.1621
       CONSTANT HEAD     =           0.0000         CONSTANT HEAD     =           0.0000
     HEAD DEP BOUNDS     =    11385184.0000       HEAD DEP BOUNDS     =           0.2881
      STREAM LEAKAGE     =   462860416.0000        STREAM LEAKAGE     =          12.6110
        UZF RECHARGE     =       73223.9531          UZF RECHARGE     =           0.0000
               GW ET     =           0.0000                 GW ET     =           0.0000
     SURFACE LEAKAGE     =           0.0000       SURFACE LEAKAGE     =           0.0000
           AG WELLS      =           0.0000             AG WELLS      =           0.0000

                TOTAL IN =   747551104.0000                  TOTAL IN =          14.0612

          OUT:                                     OUT:
          ----                                     ----
             STORAGE     =   152346896.0000               STORAGE     =           3.7764
       CONSTANT HEAD     =           0.0000         CONSTANT HEAD     =           0.0000
     HEAD DEP BOUNDS     =    11384644.0000       HEAD DEP BOUNDS     =           0.2909
      STREAM LEAKAGE     =   405568768.0000        STREAM LEAKAGE     =           9.9947
        UZF RECHARGE     =           0.0000          UZF RECHARGE     =           0.0000
               GW ET     =           0.0000                 GW ET     =           0.0000
     SURFACE LEAKAGE     =           0.0000       SURFACE LEAKAGE     =           0.0000
           AG WELLS      =   178258384.0000             AG WELLS      =           0.0000

               TOTAL OUT =   747558656.0000                 TOTAL OUT =          14.0620

                IN - OUT =       -7552.0000                  IN - OUT =      -7.4387E-04

     PERCENT DISCREPANCY =          -0.00         PERCENT DISCREPANCY =          -0.01






         TIME SUMMARY AT END OF TIME STEP   30 IN STRESS PERIOD   16
                    SECONDS     MINUTES      HOURS       DAYS        YEARS
                    -----------------------------------------------------------
   TIME STEP LENGTH  87667.      1461.1      24.352      1.0147     2.77799E-03
 STRESS PERIOD TIME 2.63000E+06  43833.      730.56      30.440     8.33397E-02
         TOTAL TIME 3.95364E+07 6.58940E+05  10982.      457.60      1.2528    
1
1
                            STRESS PERIOD NO.   17, LENGTH =   2630000.    
                            -----------------------------------------------

                              NUMBER OF TIME STEPS =    30

                               MULTIPLIER FOR DELT =     1.000

                            INITIAL TIME STEP SIZE =   87666.66    

 REUSING NON-PARAMETER GHB CELLS FROM LAST STRESS PERIOD

      2 GHB CELLS

 REUSING STREAM SEGMENT DATA FROM LAST STRESS PERIOD



            AREAL INFILTRATION RATE
 READING ON UNIT   19 WITH FORMAT: (FREE)              

            1           2           3           4           5           6           7           8           9          10
 ........................................................................................................................
   1   1.0000E-10  2.0000E-10   0.000       0.000       0.000       0.000       0.000       0.000       0.000       0.000    
   2   2.0000E-10  1.0000E-10  2.0000E-10   0.000       0.000      8.0000E-10  8.0000E-10  5.0000E-10   0.000       0.000    
   3    0.000      5.0000E-10  1.0000E-10  1.0000E-10  8.0000E-10  8.0000E-10  5.0000E-10  5.0000E-10   0.000       0.000    
   4   8.0000E-10  5.0000E-10  1.0000E-10  1.0000E-10  1.0000E-10  1.0000E-10  1.0000E-10  1.0000E-10  2.0000E-10   0.000    
   5   8.0000E-10  5.0000E-10  1.0000E-10  1.0000E-10  1.0000E-10  1.0000E-10  1.0000E-10  1.0000E-10  1.0000E-10  1.0000E-10
   6   8.0000E-10  5.0000E-10  5.0000E-10  2.0000E-10  2.0000E-10  1.0000E-10  1.0000E-10  1.0000E-10  1.0000E-10  5.0000E-10
   7   8.0000E-10  5.0000E-10  5.0000E-10  2.0000E-10  2.0000E-10  1.0000E-10  1.0000E-10  2.0000E-10  2.0000E-10   0.000    
   8    0.000      5.0000E-10  5.0000E-10  2.0000E-10  2.0000E-10  1.0000E-10  1.0000E-10  2.0000E-10  5.0000E-10   0.000    
   9    0.000      5.0000E-10  5.0000E-10  2.0000E-10  2.0000E-10  1.0000E-10  1.0000E-10  2.0000E-10  5.0000E-10   0.000    
  10    0.000      5.0000E-10  5.0000E-10  2.0000E-10  2.0000E-10  1.0000E-10  1.0000E-10  2.0000E-10  5.0000E-10  8.0000E-10
  11    0.000      1.0000E-10  1.0000E-10  1.0000E-10  1.0000E-10  1.0000E-10  1.0000E-10  2.0000E-10  5.0000E-10   0.000    
  12   1.0000E-10  1.0000E-10  1.0000E-10  1.0000E-10  1.0000E-10  1.0000E-10  1.0000E-10  1.0000E-10  2.0000E-10   0.000    
  13   1.0000E-10  1.0000E-10  2.0000E-10  2.0000E-10  2.0000E-10  2.0000E-10  2.0000E-10  1.0000E-10  1.0000E-10   0.000    
  14    0.000      2.0000E-10  5.0000E-10  5.0000E-10  5.0000E-10  5.0000E-10  5.0000E-10  2.0000E-10  1.0000E-10   0.000    
  15    0.000       0.000      8.0000E-10  8.0000E-10  8.0000E-10  8.0000E-10   0.000       0.000       0.000       0.000    

                  ET RATE =  2.500000E-08

 USING ET EXTINCTION DEPTH FROM PREVIOUS STRESS PERIOD. CURRENT PERIOD IS:      17

 USING EXTINCTION WATER CONTENT FROM PREVIOUS STRESS PERIOD. CURRENT PERIOD IS:      17

 USING AIR ENTRY PRESSURE FROM PREVIOUS STRESS PERIOD. CURRENT PERIOD IS:      17

 USING ROOT PRESSURE HEAD FROM PREVIOUS STRESS PERIOD. CURRENT PERIOD IS:      17

 USING ROOT ACTIVITY FROM PREVIOUS STRESS PERIOD. CURRENT PERIOD IS:      17

 PROCESSING AG STRESS PERIOD DATA

 READING AG STRESS PERIOD DATA

 READING IRRIGATION SEGMENT

 READING IRRIGATION WELL

 READING SUPPLEMENTAL WELL

 END PROCESSING AG STRESS PERIOD DATA OPTIONS
 
 SOLVING FOR HEAD 
                                                   Max.-Head-Change                         Max.-Flux-Residual
  Residual-Control   Outer-Iter.   Inner-Iter.     Column Row Layer    Maximum-Head-Change  Column Row Layer    Maximum-Flux-Residual          L2-NORM 
          0                 1           2             4    7     1       0.4562102600E-02       4    7    1         0.2386520338E+00      0.7893529142E+00
          0                 2           2             4    7     1      -0.1198838279E-01       4    7    1        -0.6438652912E+00      0.1573621316E+01
          0                 3           2             4    7     1       0.1204701108E-01       4    7    1         0.6650705076E+00      0.1628551539E+01
          0                 4           2             4    7     1      -0.4793642469E-03       4    7    1        -0.2720156895E-01      0.6661072279E-01
          0                 5           1             4    7     1       0.5910765141E-05       4    7    1         0.3447274885E-03      0.8445281908E-03

    ------------------------------------------------
       NWT REQUIRED            5 OUTER ITERATIONS 
       AND A TOTAL OF          9 INNER ITERATIONS.
    ------------------------------------------------

 NO OUTPUT CONTROL FOR STRESS PERIOD   17   TIME STEP    1
 
 SOLVING FOR HEAD 
                                                   Max.-Head-Change                         Max.-Flux-Residual
  Residual-Control   Outer-Iter.   Inner-Iter.     Column Row Layer    Maximum-Head-Change  Column Row Layer    Maximum-Flux-Residual          L2-NORM 
          0                 1           2             4    7     1       0.4531449030E-02       4    7    1         0.2370424369E+00      0.7203999744E+00
          0                 2           2             4    7     1      -0.4407871089E-03       4    7    1        -0.2370428522E-01      0.7193041260E-01
          0                 3           1             4    7     1       0.3001629951E-04       4    7    1         0.1659318912E-02      0.5025044627E-02

    ------------------------------------------------
       NWT REQUIRED            3 OUTER ITERATIONS 
       AND A TOTAL OF          5 INNER ITERATIONS.
    ------------------------------------------------

 NO OUTPUT CONTROL FOR STRESS PERIOD   17   TIME STEP    2
 
 SOLVING FOR HEAD 
                                                   Max.-Head-Change                         Max.-Flux-Residual
  Residual-Control   Outer-Iter.   Inner-Iter.     Column Row Layer    Maximum-Head-Change  Column Row Layer    Maximum-Flux-Residual          L2-NORM 
          0                 1           2             4    7     1       0.4501171243E-02       4    7    1         0.2354524414E+00      0.7133099223E+00
          0                 2           2             4    7     1      -0.1198245047E-01       4    7    1        -0.6435452120E+00      0.1574527922E+01
          0                 3           2             4    7     1       0.1204660192E-01       4    7    1         0.6650479830E+00      0.1628519468E+01
          0                 4           2             4    7     1      -0.4793479655E-03       4    7    1        -0.2720064766E-01      0.6661029912E-01
          0                 5           1             4    7     1       0.5910564411E-05       4    7    1         0.3447158165E-03      0.8446827152E-03

    ------------------------------------------------
       NWT REQUIRED            5 OUTER ITERATIONS 
       AND A TOTAL OF          9 INNER ITERATIONS.
    ------------------------------------------------

 NO OUTPUT CONTROL FOR STRESS PERIOD   17   TIME STEP    3
 
 SOLVING FOR HEAD 
                                                   Max.-Head-Change                         Max.-Flux-Residual
  Residual-Control   Outer-Iter.   Inner-Iter.     Column Row Layer    Maximum-Head-Change  Column Row Layer    Maximum-Flux-Residual          L2-NORM 
          0                 1           2             4    7     1       0.4471146318E-02       4    7    1         0.2338758373E+00      0.7044866402E+00
          0                 2           2             4    7     1      -0.4349209450E-03       4    7    1        -0.2338760608E-01      0.7038172722E-01
          0                 3           2             4    7     1      -0.1151390111E-01       5    8    1        -0.6187170799E+00      0.1522234023E+01
          0                 4           2             4    7     1       0.1201455122E-01       5    8    1         0.6632962163E+00      0.1624722569E+01
          0                 5           2             4    7     1      -0.4783183436E-03       5    8    1        -0.2714310374E-01      0.6648548794E-01
          0                 6           1             4    7     1       0.6031020094E-05       5    8    1         0.3517518674E-03      0.8615969940E-03

    ------------------------------------------------
       NWT REQUIRED            6 OUTER ITERATIONS 
       AND A TOTAL OF         11 INNER ITERATIONS.
    ------------------------------------------------

 NO OUTPUT CONTROL FOR STRESS PERIOD   17   TIME STEP    4
 
 SOLVING FOR HEAD 
                                                   Max.-Head-Change                         Max.-Flux-Residual
  Residual-Control   Outer-Iter.   Inner-Iter.     Column Row Layer    Maximum-Head-Change  Column Row Layer    Maximum-Flux-Residual          L2-NORM 
          0                 1           2             4    7     1       0.4441498453E-02       4    7    1         0.2323190718E+00      0.6969662544E+00
          0                 2           2             4    7     1      -0.4320373540E-03       4    7    1        -0.2323194761E-01      0.6965002060E-01
          0                 3           2             4    7     1      -0.1151409998E-01       5    8    1        -0.6187253437E+00      0.1522253386E+01
          0                 4           2             4    7     1       0.1201456220E-01       5    8    1         0.6632967352E+00      0.1624723950E+01
          0                 5           2             4    7     1      -0.4783187802E-03       5    8    1        -0.2714312498E-01      0.6648554633E-01
          0                 6           1             4    7     1       0.6031025358E-05       5    8    1         0.3517521452E-03      0.8615982418E-03

    ------------------------------------------------
       NWT REQUIRED            6 OUTER ITERATIONS 
       AND A TOTAL OF         11 INNER ITERATIONS.
    ------------------------------------------------

 NO OUTPUT CONTROL FOR STRESS PERIOD   17   TIME STEP    5
 
 SOLVING FOR HEAD 
                                                   Max.-Head-Change                         Max.-Flux-Residual
  Residual-Control   Outer-Iter.   Inner-Iter.     Column Row Layer    Maximum-Head-Change  Column Row Layer    Maximum-Flux-Residual          L2-NORM 
          0                 1           2             4    7     1       0.4412085708E-02       4    7    1         0.2307744937E+00      0.6905174513E+00
          0                 2           2             4    7     1      -0.4291762908E-03       4    7    1        -0.2307748944E-01      0.6902065027E-01
          0                 3           2             4    7     1      -0.1151429874E-01       5    8    1        -0.6187335697E+00      0.1522272987E+01
          0                 4           2             4    7     1       0.1201457426E-01       5    8    1         0.6632973111E+00      0.1624725471E+01
          0                 5           2             4    7     1      -0.4783192603E-03       5    8    1        -0.2714314853E-01      0.6648560842E-01
          0                 6           1             4    7     1       0.6031031519E-05       5    8    1         0.3517524547E-03      0.8615987940E-03

    ------------------------------------------------
       NWT REQUIRED            6 OUTER ITERATIONS 
       AND A TOTAL OF         11 INNER ITERATIONS.
    ------------------------------------------------

 NO OUTPUT CONTROL FOR STRESS PERIOD   17   TIME STEP    6
 
 SOLVING FOR HEAD 
                                                   Max.-Head-Change                         Max.-Flux-Residual
  Residual-Control   Outer-Iter.   Inner-Iter.     Column Row Layer    Maximum-Head-Change  Column Row Layer    Maximum-Flux-Residual          L2-NORM 
          0                 1           2             4    7     1       0.4382905509E-02       4    7    1         0.2292421063E+00      0.6849451765E+00
          0                 2           2             4    7     1      -0.4263378485E-03       4    7    1        -0.2292425037E-01      0.6847493185E-01
          0                 3           2             4    7     1      -0.1151449593E-01       5    8    1        -0.6187416800E+00      0.1522292691E+01
          0                 4           2             4    7     1       0.1201458622E-01       5    8    1         0.6632978789E+00      0.1624726987E+01
          0                 5           2             4    7     1      -0.4783197366E-03       5    8    1        -0.2714317174E-01      0.6648567063E-01
          0                 6           1             4    7     1       0.6031037120E-05       5    8    1         0.3517527468E-03      0.8615993640E-03

    ------------------------------------------------
       NWT REQUIRED            6 OUTER ITERATIONS 
       AND A TOTAL OF         11 INNER ITERATIONS.
    ------------------------------------------------

 NO OUTPUT CONTROL FOR STRESS PERIOD   17   TIME STEP    7
 
 SOLVING FOR HEAD 
                                                   Max.-Head-Change                         Max.-Flux-Residual
  Residual-Control   Outer-Iter.   Inner-Iter.     Column Row Layer    Maximum-Head-Change  Column Row Layer    Maximum-Flux-Residual          L2-NORM 
          0                 1           2             4    7     1       0.4354226036E-02       4    7    1         0.2277365005E+00      0.6801013527E+00
          0                 2           2             4    7     1      -0.4235481127E-03       4    7    1        -0.2277368946E-01      0.6799886017E-01
          0                 3           2             4    7     1      -0.1151468972E-01       5    8    1        -0.6187497317E+00      0.1522312137E+01
          0                 4           2             4    7     1       0.1201459797E-01       5    8    1         0.6632984426E+00      0.1624728475E+01
          0                 5           2             4    7     1      -0.4783202042E-03       5    8    1        -0.2714319482E-01      0.6648573141E-01
          0                 6           1             4    7     1       0.6031042945E-05       5    8    1         0.3517530286E-03      0.8616008544E-03

    ------------------------------------------------
       NWT REQUIRED            6 OUTER ITERATIONS 
       AND A TOTAL OF         11 INNER ITERATIONS.
    ------------------------------------------------

 NO OUTPUT CONTROL FOR STRESS PERIOD   17   TIME STEP    8
 
 SOLVING FOR HEAD 
                                                   Max.-Head-Change                         Max.-Flux-Residual
  Residual-Control   Outer-Iter.   Inner-Iter.     Column Row Layer    Maximum-Head-Change  Column Row Layer    Maximum-Flux-Residual          L2-NORM 
          0                 1           2             4    7     1       0.4325763265E-02       4    7    1         0.2262421324E+00      0.6758486435E+00
          0                 2           2             4    7     1      -0.4207794565E-03       4    7    1        -0.2262425232E-01      0.6757929453E-01
          0                 3           2             4    7     1      -0.1151488205E-01       5    8    1        -0.6187576130E+00      0.1522332814E+01
          0                 4           2             4    7     1       0.1201460963E-01       5    8    1         0.6632989944E+00      0.1624729992E+01
          0                 5           2             4    7     1      -0.4783206682E-03       5    8    1        -0.2714321739E-01      0.6648579134E-01
          0                 6           1             4    7     1       0.6031048546E-05       5    8    1         0.3517533164E-03      0.8616013258E-03

    ------------------------------------------------
       NWT REQUIRED            6 OUTER ITERATIONS 
       AND A TOTAL OF         11 INNER ITERATIONS.
    ------------------------------------------------

 NO OUTPUT CONTROL FOR STRESS PERIOD   17   TIME STEP    9
 
 SOLVING FOR HEAD 
                                                   Max.-Head-Change                         Max.-Flux-Residual
  Residual-Control   Outer-Iter.   Inner-Iter.     Column Row Layer    Maximum-Head-Change  Column Row Layer    Maximum-Flux-Residual          L2-NORM 
          0                 1           2             4    7     1       0.4297519099E-02       4    7    1         0.2247590001E+00      0.6720716302E+00
          0                 2           2             4    7     1      -0.4180320641E-03       4    7    1        -0.2247593874E-01      0.6720508549E-01
          0                 3           2             4    7     1      -0.1151507290E-01       5    8    1        -0.6187654945E+00      0.1522351123E+01
          0                 4           2             4    7     1       0.1201462120E-01       5    8    1         0.6632995462E+00      0.1624731411E+01
          0                 5           2             4    7     1      -0.4783211284E-03       5    8    1        -0.2714323996E-01      0.6648585077E-01
          0                 6           1             4    7     1       0.6031054371E-05       5    8    1         0.3517536095E-03      0.8616036095E-03

    ------------------------------------------------
       NWT REQUIRED            6 OUTER ITERATIONS 
       AND A TOTAL OF         11 INNER ITERATIONS.
    ------------------------------------------------

 NO OUTPUT CONTROL FOR STRESS PERIOD   17   TIME STEP   10
 
 SOLVING FOR HEAD 
                                                   Max.-Head-Change                         Max.-Flux-Residual
  Residual-Control   Outer-Iter.   Inner-Iter.     Column Row Layer    Maximum-Head-Change  Column Row Layer    Maximum-Flux-Residual          L2-NORM 
          0                 1           2             4    7     1       0.4269626100E-02       4    7    1         0.2232945645E+00      0.6686908393E+00
          0                 2           2             4    7     1      -0.4153188313E-03       4    7    1        -0.2232949488E-01      0.6686876334E-01
          0                 3           2             4    7     1      -0.1151526137E-01       5    8    1        -0.6187732052E+00      0.1522370405E+01
          0                 4           2             4    7     1       0.1201463262E-01       5    8    1         0.6633000860E+00      0.1624741698E+01
          0                 5           2             4    7     1      -0.4783215831E-03       5    8    1        -0.2714326204E-01      0.6648639126E-01
          0                 6           1             4    7     1       0.6031059859E-05       5    8    1         0.3517538833E-03      0.8616036974E-03

    ------------------------------------------------
       NWT REQUIRED            6 OUTER ITERATIONS 
       AND A TOTAL OF         11 INNER ITERATIONS.
    ------------------------------------------------

 NO OUTPUT CONTROL FOR STRESS PERIOD   17   TIME STEP   11
 
 SOLVING FOR HEAD 
                                                   Max.-Head-Change                         Max.-Flux-Residual
  Residual-Control   Outer-Iter.   Inner-Iter.     Column Row Layer    Maximum-Head-Change  Column Row Layer    Maximum-Flux-Residual          L2-NORM 
          0                 1           2             4    7     1       0.4242079602E-02       4    7    1         0.2218483367E+00      0.6656150416E+00
          0                 2           2             4    7     1      -0.4126393033E-03       4    7    1        -0.2218487178E-01      0.6656151610E-01
          0                 3           2             4    7     1      -0.1151544750E-01       5    8    1        -0.6187808625E+00      0.1522389674E+01
          0                 4           2             4    7     1       0.1201464389E-01       5    8    1         0.6633006221E+00      0.1624743132E+01
          0                 5           2             4    7     1      -0.4783220315E-03       5    8    1        -0.2714328398E-01      0.6648646250E-01
          0                 6           1             4    7     1       0.6031065236E-05       5    8    1         0.3517541529E-03      0.8616090378E-03

    ------------------------------------------------
       NWT REQUIRED            6 OUTER ITERATIONS 
       AND A TOTAL OF         11 INNER ITERATIONS.
    ------------------------------------------------

 NO OUTPUT CONTROL FOR STRESS PERIOD   17   TIME STEP   12
 
 SOLVING FOR HEAD 
                                                   Max.-Head-Change                         Max.-Flux-Residual
  Residual-Control   Outer-Iter.   Inner-Iter.     Column Row Layer    Maximum-Head-Change  Column Row Layer    Maximum-Flux-Residual          L2-NORM 
          0                 1           2             4    7     1       0.4214733805E-02       4    7    1         0.2204127121E+00      0.6627979809E+00
          0                 2           2             4    7     1      -0.4099792990E-03       4    7    1        -0.2204130904E-01      0.6627904883E-01
          0                 3           2             4    7     1      -0.1151563227E-01       5    8    1        -0.6187884084E+00      0.1522408334E+01
          0                 4           2             4    7     1       0.1201465508E-01       5    8    1         0.6633011504E+00      0.1624755187E+01
          0                 5           2             4    7     1      -0.4783224774E-03       5    8    1        -0.2714330559E-01      0.6648704108E-01
          0                 6           1             4    7     1       0.6031071061E-05       5    8    1         0.3517544283E-03      0.8616095758E-03

    ------------------------------------------------
       NWT REQUIRED            6 OUTER ITERATIONS 
       AND A TOTAL OF         11 INNER ITERATIONS.
    ------------------------------------------------

 NO OUTPUT CONTROL FOR STRESS PERIOD   17   TIME STEP   13
 
 SOLVING FOR HEAD 
                                                   Max.-Head-Change                         Max.-Flux-Residual
  Residual-Control   Outer-Iter.   Inner-Iter.     Column Row Layer    Maximum-Head-Change  Column Row Layer    Maximum-Flux-Residual          L2-NORM 
          0                 1           2             4    7     1       0.4187590821E-02       4    7    1         0.2189874935E+00      0.6601750762E+00
          0                 2           2             4    7     1      -0.4073390220E-03       4    7    1        -0.2189878685E-01      0.6601518543E-01
          0                 3           2             4    7     1      -0.1151581566E-01       5    8    1        -0.6187959015E+00      0.1522427714E+01
          0                 4           2             4    7     1       0.1201466619E-01       5    8    1         0.6633016749E+00      0.1624756618E+01
          0                 5           2             4    7     1      -0.4783229188E-03       5    8    1        -0.2714332705E-01      0.6648709562E-01
          0                 6           1             4    7     1       0.6031076438E-05       5    8    1         0.3517547025E-03      0.8616157004E-03

    ------------------------------------------------
       NWT REQUIRED            6 OUTER ITERATIONS 
       AND A TOTAL OF         11 INNER ITERATIONS.
    ------------------------------------------------

 NO OUTPUT CONTROL FOR STRESS PERIOD   17   TIME STEP   14
 
 SOLVING FOR HEAD 
                                                   Max.-Head-Change                         Max.-Flux-Residual
  Residual-Control   Outer-Iter.   Inner-Iter.     Column Row Layer    Maximum-Head-Change  Column Row Layer    Maximum-Flux-Residual          L2-NORM 
          0                 1           2             4    7     1       0.4160920674E-02       4    7    1         0.2175875159E+00      0.6577213663E+00
          0                 2           2             4    7     1      -0.4047447398E-03       4    7    1        -0.2175878882E-01      0.6576752224E-01
          0                 3           2             4    7     1      -0.1151599586E-01       5    8    1        -0.6188032844E+00      0.1522446573E+01
          0                 4           2             4    7     1       0.1201467709E-01       5    8    1         0.6633021918E+00      0.1624757991E+01
          0                 5           2             4    7     1      -0.4783233532E-03       5    8    1        -0.2714334819E-01      0.6648715889E-01
          0                 6           1             4    7     1       0.6031082150E-05       5    8    1         0.3517549892E-03      0.8616145587E-03

    ------------------------------------------------
       NWT REQUIRED            6 OUTER ITERATIONS 
       AND A TOTAL OF         11 INNER ITERATIONS.
    ------------------------------------------------

 NO OUTPUT CONTROL FOR STRESS PERIOD   17   TIME STEP   15
 
 SOLVING FOR HEAD 
                                                   Max.-Head-Change                         Max.-Flux-Residual
  Residual-Control   Outer-Iter.   Inner-Iter.     Column Row Layer    Maximum-Head-Change  Column Row Layer    Maximum-Flux-Residual          L2-NORM 
          0                 1           2             4    7     1       0.4134437117E-02       4    7    1         0.2161973292E+00      0.6553896527E+00
          0                 2           2             4    7     1      -0.4021686074E-03       4    7    1        -0.2161976985E-01      0.6553152833E-01
          0                 3           2             4    7     1      -0.1151617479E-01       5    8    1        -0.6188105608E+00      0.1522465289E+01
          0                 4           2             4    7     1       0.1201468792E-01       5    8    1         0.6633027012E+00      0.1624759363E+01
          0                 5           2             4    7     1      -0.4783237839E-03       5    8    1        -0.2714336904E-01      0.6648721160E-01
          0                 6           1             4    7     1       0.6031087079E-05       5    8    1         0.3517552398E-03      0.8616097309E-03

    ------------------------------------------------
       NWT REQUIRED            6 OUTER ITERATIONS 
       AND A TOTAL OF         11 INNER ITERATIONS.
    ------------------------------------------------

 NO OUTPUT CONTROL FOR STRESS PERIOD   17   TIME STEP   16
 
 SOLVING FOR HEAD 
                                                   Max.-Head-Change                         Max.-Flux-Residual
  Residual-Control   Outer-Iter.   Inner-Iter.     Column Row Layer    Maximum-Head-Change  Column Row Layer    Maximum-Flux-Residual          L2-NORM 
          0                 1           2             4    7     1       0.4108139560E-02       4    7    1         0.2148168168E+00      0.6531573697E+00
          0                 2           2             4    7     1      -0.3996105681E-03       4    7    1        -0.2148171832E-01      0.6530521082E-01
          0                 3           2             4    7     1      -0.1151635247E-01       5    8    1        -0.6188177332E+00      0.1522483902E+01
          0                 4           2             4    7     1       0.1201469867E-01       5    8    1         0.6633032034E+00      0.1624760716E+01
          0                 5           2             4    7     1      -0.4783242117E-03       5    8    1        -0.2714338957E-01      0.6648730607E-01
          0                 6           1             4    7     1       0.6031092120E-05       5    8    1         0.3517555001E-03      0.8617439623E-03

    ------------------------------------------------
       NWT REQUIRED            6 OUTER ITERATIONS 
       AND A TOTAL OF         11 INNER ITERATIONS.
    ------------------------------------------------

 NO OUTPUT CONTROL FOR STRESS PERIOD   17   TIME STEP   17
 
 SOLVING FOR HEAD 
                                                   Max.-Head-Change                         Max.-Flux-Residual
  Residual-Control   Outer-Iter.   Inner-Iter.     Column Row Layer    Maximum-Head-Change  Column Row Layer    Maximum-Flux-Residual          L2-NORM 
          0                 1           2             4    7     1       0.4082300992E-02       4    7    1         0.2134606740E+00      0.6510017103E+00
          0                 2           2             4    7     1      -0.3970971759E-03       4    7    1        -0.2134610377E-01      0.6508641671E-01
          0                 3           2             4    7     1      -0.1151652703E-01       5    8    1        -0.6188248592E+00      0.1522502426E+01
          0                 4           2             4    7     1       0.1201470922E-01       5    8    1         0.6633037022E+00      0.1624762067E+01
          0                 5           2             4    7     1      -0.4783246319E-03       5    8    1        -0.2714340999E-01      0.6648731530E-01
          0                 6           1             4    7     1       0.6031097273E-05       5    8    1         0.3517557575E-03      0.8616113823E-03

    ------------------------------------------------
       NWT REQUIRED            6 OUTER ITERATIONS 
       AND A TOTAL OF         11 INNER ITERATIONS.
    ------------------------------------------------

 NO OUTPUT CONTROL FOR STRESS PERIOD   17   TIME STEP   18
 
 SOLVING FOR HEAD 
                                                   Max.-Head-Change                         Max.-Flux-Residual
  Residual-Control   Outer-Iter.   Inner-Iter.     Column Row Layer    Maximum-Head-Change  Column Row Layer    Maximum-Flux-Residual          L2-NORM 
          0                 1           2             4    7     1       0.4056504569E-02       4    7    1         0.2121062407E+00      0.6489125275E+00
          0                 2           2             4    7     1      -0.3945878834E-03       4    7    1        -0.2121066017E-01      0.6487390580E-01
          0                 3           2             4    7     1      -0.1151670132E-01       5    8    1        -0.6188318827E+00      0.1522520467E+01
          0                 4           2             4    7     1       0.1201471976E-01       5    8    1         0.6633041939E+00      0.1624763371E+01
          0                 5           2             4    7     1      -0.4783250512E-03       5    8    1        -0.2714343011E-01      0.6648737902E-01
          0                 6           1             4    7     1       0.6031102873E-05       5    8    1         0.3517560108E-03      0.8616172397E-03

    ------------------------------------------------
       NWT REQUIRED            6 OUTER ITERATIONS 
       AND A TOTAL OF         11 INNER ITERATIONS.
    ------------------------------------------------

 NO OUTPUT CONTROL FOR STRESS PERIOD   17   TIME STEP   19
 
 SOLVING FOR HEAD 
                                                   Max.-Head-Change                         Max.-Flux-Residual
  Residual-Control   Outer-Iter.   Inner-Iter.     Column Row Layer    Maximum-Head-Change  Column Row Layer    Maximum-Flux-Residual          L2-NORM 
          0                 1           2             4    7     1       0.4031159042E-02       4    7    1         0.2107760813E+00      0.6468729681E+00
          0                 2           2             4    7     1      -0.3921224507E-03       4    7    1        -0.2107764397E-01      0.6466633805E-01
          0                 3           2             4    7     1      -0.1151687255E-01       5    8    1        -0.6188388050E+00      0.1522538765E+01
          0                 4           2             4    7     1       0.1201473011E-01       5    8    1         0.6633046786E+00      0.1624764694E+01
          0                 5           2             4    7     1      -0.4783254632E-03       5    8    1        -0.2714344994E-01      0.6648743220E-01
          0                 6           1             4    7     1       0.6031107690E-05       5    8    1         0.3517562636E-03      0.8616149206E-03

    ------------------------------------------------
       NWT REQUIRED            6 OUTER ITERATIONS 
       AND A TOTAL OF         11 INNER ITERATIONS.
    ------------------------------------------------

 NO OUTPUT CONTROL FOR STRESS PERIOD   17   TIME STEP   20
 
 SOLVING FOR HEAD 
                                                   Max.-Head-Change                         Max.-Flux-Residual
  Residual-Control   Outer-Iter.   Inner-Iter.     Column Row Layer    Maximum-Head-Change  Column Row Layer    Maximum-Flux-Residual          L2-NORM 
          0                 1           2             4    7     1       0.4005980305E-02       4    7    1         0.2094545746E+00      0.6448560365E+00
          0                 2           2             4    7     1      -0.3896732422E-03       4    7    1        -0.2094549301E-01      0.6446111179E-01
          0                 3           2             4    7     1      -0.1151704265E-01       5    8    1        -0.6188456851E+00      0.1522556805E+01
          0                 4           2             4    7     1       0.1201474039E-01       5    8    1         0.6633051602E+00      0.1624765997E+01
          0                 5           2             4    7     1      -0.4783258719E-03       5    8    1        -0.2714346962E-01      0.6648748683E-01
          0                 6           1             4    7     1       0.6031112619E-05       5    8    1         0.3517565137E-03      0.8616180020E-03

    ------------------------------------------------
       NWT REQUIRED            6 OUTER ITERATIONS 
       AND A TOTAL OF         11 INNER ITERATIONS.
    ------------------------------------------------

 NO OUTPUT CONTROL FOR STRESS PERIOD   17   TIME STEP   21
 
 SOLVING FOR HEAD 
                                                   Max.-Head-Change                         Max.-Flux-Residual
  Residual-Control   Outer-Iter.   Inner-Iter.     Column Row Layer    Maximum-Head-Change  Column Row Layer    Maximum-Flux-Residual          L2-NORM 
          0                 1           2             4    7     1       0.3981105753E-02       4    7    1         0.2081490788E+00      0.6428758043E+00
          0                 2           2             4    7     1      -0.3872536232E-03       4    7    1        -0.2081494321E-01      0.6425946183E-01
          0                 3           2             4    7     1      -0.1151721070E-01       5    8    1        -0.6188524663E+00      0.1522574654E+01
          0                 4           2             4    7     1       0.1201475054E-01       5    8    1         0.6633056350E+00      0.1624767283E+01
          0                 5           2             4    7     1      -0.4783262759E-03       5    8    1        -0.2714348905E-01      0.6648754153E-01
          0                 6           1             4    7     1       0.6031117323E-05       5    8    1         0.3517567561E-03      0.8616257782E-03

    ------------------------------------------------
       NWT REQUIRED            6 OUTER ITERATIONS 
       AND A TOTAL OF         11 INNER ITERATIONS.
    ------------------------------------------------

 NO OUTPUT CONTROL FOR STRESS PERIOD   17   TIME STEP   22
 
 SOLVING FOR HEAD 
                                                   Max.-Head-Change                         Max.-Flux-Residual
  Residual-Control   Outer-Iter.   Inner-Iter.     Column Row Layer    Maximum-Head-Change  Column Row Layer    Maximum-Flux-Residual          L2-NORM 
          0                 1           2             4    7     1       0.3956394523E-02       4    7    1         0.2068519915E+00      0.6409119510E+00
          0                 2           2             4    7     1      -0.3848498901E-03       4    7    1        -0.2068523420E-01      0.6405943512E-01
          0                 3           2             4    7     1      -0.1151737764E-01       5    8    1        -0.6188591513E+00      0.1522592465E+01
          0                 4           2             4    7     1       0.1201476062E-01       5    8    1         0.6633061030E+00      0.1624768549E+01
          0                 5           2             4    7     1      -0.4783266776E-03       5    8    1        -0.2714350821E-01      0.6648758430E-01
          0                 6           1             4    7     1       0.6031122700E-05       5    8    1         0.3517569951E-03      0.8616186199E-03

    ------------------------------------------------
       NWT REQUIRED            6 OUTER ITERATIONS 
       AND A TOTAL OF         11 INNER ITERATIONS.
    ------------------------------------------------

 NO OUTPUT CONTROL FOR STRESS PERIOD   17   TIME STEP   23
 
 SOLVING FOR HEAD 
                                                   Max.-Head-Change                         Max.-Flux-Residual
  Residual-Control   Outer-Iter.   Inner-Iter.     Column Row Layer    Maximum-Head-Change  Column Row Layer    Maximum-Flux-Residual          L2-NORM 
          0                 1           2             4    7     1       0.3931983743E-02       4    7    1         0.2055707355E+00      0.6389629567E+00
          0                 2           2             4    7     1      -0.3824753834E-03       4    7    1        -0.2055710836E-01      0.6386136753E-01
          0                 3           2             4    7     1      -0.1151754254E-01       5    8    1        -0.6188657429E+00      0.1522609780E+01
          0                 4           2             4    7     1       0.1201477058E-01       5    8    1         0.6633065645E+00      0.1624769803E+01
          0                 5           2             4    7     1      -0.4783270736E-03       5    8    1        -0.2714352709E-01      0.6648764261E-01
          0                 6           1             4    7     1       0.6031127629E-05       5    8    1         0.3517572438E-03      0.8616183678E-03

    ------------------------------------------------
       NWT REQUIRED            6 OUTER ITERATIONS 
       AND A TOTAL OF         11 INNER ITERATIONS.
    ------------------------------------------------

 NO OUTPUT CONTROL FOR STRESS PERIOD   17   TIME STEP   24
 
 SOLVING FOR HEAD 
                                                   Max.-Head-Change                         Max.-Flux-Residual
  Residual-Control   Outer-Iter.   Inner-Iter.     Column Row Layer    Maximum-Head-Change  Column Row Layer    Maximum-Flux-Residual          L2-NORM 
          0                 1           2             4    7     1       0.3907731410E-02       4    7    1         0.2042976942E+00      0.6370302953E+00
          0                 2           2             4    7     1      -0.3801162890E-03       4    7    1        -0.2042980399E-01      0.6366459629E-01
          0                 3           2             4    7     1      -0.1151770638E-01       5    8    1        -0.6188722987E+00      0.1522627204E+01
          0                 4           2             4    7     1       0.1201478047E-01       5    8    1         0.6633070234E+00      0.1624771047E+01
          0                 5           2             4    7     1      -0.4783274671E-03       5    8    1        -0.2714354585E-01      0.6648768969E-01
          0                 6           1             4    7     1       0.6031132334E-05       5    8    1         0.3517574851E-03      0.8616238763E-03

    ------------------------------------------------
       NWT REQUIRED            6 OUTER ITERATIONS 
       AND A TOTAL OF         11 INNER ITERATIONS.
    ------------------------------------------------

 NO OUTPUT CONTROL FOR STRESS PERIOD   17   TIME STEP   25
 
 SOLVING FOR HEAD 
                                                   Max.-Head-Change                         Max.-Flux-Residual
  Residual-Control   Outer-Iter.   Inner-Iter.     Column Row Layer    Maximum-Head-Change  Column Row Layer    Maximum-Flux-Residual          L2-NORM 
          0                 1           2             4    7     1       0.3883906356E-02       4    7    1         0.2030475949E+00      0.6351023750E+00
          0                 2           2             4    7     1      -0.3777987573E-03       4    7    1        -0.2030479383E-01      0.6346845790E-01
          0                 3           2             4    7     1      -0.1151786732E-01       5    8    1        -0.6188787616E+00      0.1522644506E+01
          0                 4           2             4    7     1       0.1201479017E-01       5    8    1         0.6633074759E+00      0.1624772280E+01
          0                 5           2             4    7     1      -0.4783278536E-03       5    8    1        -0.2714356438E-01      0.6648773676E-01
          0                 6           1             4    7     1       0.6031137038E-05       5    8    1         0.3517577256E-03      0.8616199081E-03

    ------------------------------------------------
       NWT REQUIRED            6 OUTER ITERATIONS 
       AND A TOTAL OF         11 INNER ITERATIONS.
    ------------------------------------------------

 NO OUTPUT CONTROL FOR STRESS PERIOD   17   TIME STEP   26
 
 SOLVING FOR HEAD 
                                                   Max.-Head-Change                         Max.-Flux-Residual
  Residual-Control   Outer-Iter.   Inner-Iter.     Column Row Layer    Maximum-Head-Change  Column Row Layer    Maximum-Flux-Residual          L2-NORM 
          0                 1           2             4    7     1       0.3860092519E-02       4    7    1         0.2017975595E+00      0.6331752115E+00
          0                 2           2             4    7     1      -0.3754823168E-03       4    7    1        -0.2017979004E-01      0.6327267809E-01
          0                 3           2             4    7     1      -0.1151802818E-01       5    8    1        -0.6188851352E+00      0.1522661526E+01
          0                 4           2             4    7     1       0.1201479988E-01       5    8    1         0.6633079221E+00      0.1624773538E+01
          0                 5           2             4    7     1      -0.4783282402E-03       5    8    1        -0.2714358264E-01      0.6648778669E-01
          0                 6           1             4    7     1       0.6031141743E-05       5    8    1         0.3517579405E-03      0.8616203966E-03

    ------------------------------------------------
       NWT REQUIRED            6 OUTER ITERATIONS 
       AND A TOTAL OF         11 INNER ITERATIONS.
    ------------------------------------------------

 NO OUTPUT CONTROL FOR STRESS PERIOD   17   TIME STEP   27
 
 SOLVING FOR HEAD 
                                                   Max.-Head-Change                         Max.-Flux-Residual
  Residual-Control   Outer-Iter.   Inner-Iter.     Column Row Layer    Maximum-Head-Change  Column Row Layer    Maximum-Flux-Residual          L2-NORM 
          0                 1           2             4    7     1       0.3836701560E-02       4    7    1         0.2005701960E+00      0.6312633197E+00
          0                 2           2             4    7     1      -0.3732070108E-03       4    7    1        -0.2005705345E-01      0.6307856513E-01
          0                 3           2             4    7     1      -0.1151818619E-01       5    8    1        -0.6188914214E+00      0.1522678452E+01
          0                 4           2             4    7     1       0.1201480941E-01       5    8    1         0.6633083622E+00      0.1624774750E+01
          0                 5           2             4    7     1      -0.4783286191E-03       5    8    1        -0.2714360063E-01      0.6648784945E-01
          0                 6           1             4    7     1       0.6031146784E-05       5    8    1         0.3517581804E-03      0.8616220993E-03

    ------------------------------------------------
       NWT REQUIRED            6 OUTER ITERATIONS 
       AND A TOTAL OF         11 INNER ITERATIONS.
    ------------------------------------------------

 NO OUTPUT CONTROL FOR STRESS PERIOD   17   TIME STEP   28
 
 SOLVING FOR HEAD 
                                                   Max.-Head-Change                         Max.-Flux-Residual
  Residual-Control   Outer-Iter.   Inner-Iter.     Column Row Layer    Maximum-Head-Change  Column Row Layer    Maximum-Flux-Residual          L2-NORM 
          0                 1           2             4    7     1       0.3813452058E-02       4    7    1         0.1993500313E+00      0.6293520064E+00
          0                 2           2             4    7     1      -0.3709454651E-03       4    7    1        -0.1993503677E-01      0.6288438635E-01
          0                 3           2             4    7     1      -0.1151834324E-01       5    8    1        -0.6188976774E+00      0.1522695266E+01
          0                 4           2             4    7     1       0.1201481887E-01       5    8    1         0.6633088002E+00      0.1624775943E+01
          0                 5           2             4    7     1      -0.4783289958E-03       5    8    1        -0.2714361855E-01      0.6648789407E-01
          0                 6           1             4    7     1       0.6031151152E-05       5    8    1         0.3517584175E-03      0.8616256042E-03

    ------------------------------------------------
       NWT REQUIRED            6 OUTER ITERATIONS 
       AND A TOTAL OF         11 INNER ITERATIONS.
    ------------------------------------------------

 NO OUTPUT CONTROL FOR STRESS PERIOD   17   TIME STEP   29
 
 SOLVING FOR HEAD 
                                                   Max.-Head-Change                         Max.-Flux-Residual
  Residual-Control   Outer-Iter.   Inner-Iter.     Column Row Layer    Maximum-Head-Change  Column Row Layer    Maximum-Flux-Residual          L2-NORM 
          0                 1           2             4    7     1       0.3790452602E-02       4    7    1         0.1981445645E+00      0.6026205407E+00
          0                 2           2             4    7     1      -0.3687082418E-03       4    7    1        -0.1981448987E-01      0.6026032465E-01
          0                 3           2             4    7     1      -0.1151849859E-01       5    8    1        -0.6189038479E+00      0.1522725472E+01
          0                 4           2             4    7     1       0.1201482824E-01       5    8    1         0.6633092322E+00      0.1624757124E+01
          0                 5           2             4    7     1      -0.4783293683E-03       5    8    1        -0.2714363620E-01      0.6648689178E-01
          0                 6           1             4    7     1       0.6031155521E-05       5    8    1         0.3517586169E-03      0.8616148647E-03

    ------------------------------------------------
       NWT REQUIRED            6 OUTER ITERATIONS 
       AND A TOTAL OF         11 INNER ITERATIONS.
    ------------------------------------------------

 NO OUTPUT CONTROL FOR STRESS PERIOD   17   TIME STEP   30



 STREAM LISTING     PERIOD     17   STEP       30

 LAYER ROW COL. STREAM  RCH.  FLOW INTO     FLOW TO   FLOW OUT OF   OVRLND.     DIRECT     STREAM       STREAM     STREAM     STREAM   STREAMBED  STREAMBED
                SEG.NO.  NO.  STRM. RCH.    AQUIFER    STRM. RCH.    RUNOFF     PRECIP       ET          HEAD       DEPTH      WIDTH   CONDCTNC.   GRADIENT

   1    1    1     1     1    2.4716E+01  2.4383E-01   2.4472E+01  0.000E+00  0.000E+00  0.000E+00  1.09422E+03  1.174E+00  1.298E+01  5.842E-02  1.391E+00
   1    2    2     1     2    2.4472E+01  3.7705E-01   2.4095E+01  0.000E+00  0.000E+00  0.000E+00  1.08923E+03  1.169E+00  1.292E+01  9.043E-02  1.390E+00
   1    3    3     1     3    2.4095E+01  3.2100E-01   2.3774E+01  0.000E+00  0.000E+00  0.000E+00  1.08358E+03  1.164E+00  1.285E+01  7.709E-02  1.388E+00
   1    3    4     1     4    2.3774E+01  2.9513E-01   2.3479E+01  0.000E+00  0.000E+00  0.000E+00  1.07857E+03  1.159E+00  1.278E+01  7.096E-02  1.386E+00
   1    4    5     2     1    2.1479E+01  3.1960E-01   2.1159E+01  0.000E+00  0.000E+00  0.000E+00  1.07303E+03  1.097E+00  1.200E+01  7.800E-02  1.366E+00
   1    5    6     2     2    2.1159E+01  2.4532E-01   2.0914E+01  0.000E+00  0.000E+00  0.000E+00  1.06760E+03  1.089E+00  1.200E+01  6.000E-02  1.363E+00
   1    6    6     2     3    2.0914E+01  2.4487E-01   2.0669E+01  0.000E+00  0.000E+00  0.000E+00  1.06287E+03  1.081E+00  1.200E+01  6.000E-02  1.360E+00
   1    7    6     2     4    2.0669E+01  2.4441E-01   2.0424E+01  0.000E+00  0.000E+00  0.000E+00  1.05815E+03  1.073E+00  1.200E+01  6.000E-02  1.358E+00
   1    8    6     2     5    2.0424E+01  2.4395E-01   2.0180E+01  0.000E+00  0.000E+00  0.000E+00  1.05342E+03  1.066E+00  1.200E+01  6.000E-02  1.355E+00
   1    3    5     3     1    2.0000E+00  2.8252E-01   1.7175E+00  0.000E+00  0.000E+00  0.000E+00  1.07555E+03  1.909E+00  9.636E+00  7.227E-02  1.955E+00
   1    3    6     3     2    1.7175E+00  2.4905E-01   1.4684E+00  0.000E+00  0.000E+00  0.000E+00  1.07264E+03  1.727E+00  8.909E+00  6.682E-02  1.864E+00
   1    3    7     3     3    1.4684E+00  1.9718E-01   1.2712E+00  0.000E+00  0.000E+00  0.000E+00  1.06987E+03  1.555E+00  8.218E+00  5.547E-02  1.777E+00
   1    4    8     3     4    1.2712E+00  2.2567E-01   1.0456E+00  0.000E+00  0.000E+00  0.000E+00  1.06682E+03  1.364E+00  7.455E+00  6.709E-02  1.682E+00
   1    5    8     3     5    1.0456E+00  1.5790E-01   8.8768E-01  0.000E+00  0.000E+00  0.000E+00  1.06362E+03  1.164E+00  6.655E+00  4.991E-02  1.582E+00
   1    6    8     3     6    8.8768E-01  5.5980E-02   8.3170E-01  0.000E+00  0.000E+00  0.000E+00  1.06158E+03  1.036E+00  6.145E+00  1.844E-02  1.518E+00
   1    5   10     4     1    1.0000E+01  9.0919E-02   9.9091E+00  0.000E+00  0.000E+00  0.000E+00  1.07836E+03  6.368E-01  1.000E+01  2.500E-02  1.212E+00
   1    5    9     4     2    9.9091E+00  1.8158E-01   9.7275E+00  0.000E+00  0.000E+00  0.000E+00  1.07154E+03  6.315E-01  1.000E+01  5.000E-02  1.211E+00
   1    6    8     4     3    9.7275E+00  1.2689E-01   9.6006E+00  0.000E+00  0.000E+00  0.000E+00  1.06381E+03  6.256E-01  1.000E+01  3.500E-02  1.209E+00
   1    6    8     5     1    1.0432E+01  2.2686E-01   1.0205E+01  0.000E+00  0.000E+00  0.000E+00  1.05868E+03  6.790E-01  1.542E+01  6.166E-02  1.226E+00
   1    7    7     5     2    1.0205E+01  2.7894E-01   9.9265E+00  0.000E+00  0.000E+00  0.000E+00  1.05417E+03  6.732E-01  1.519E+01  7.594E-02  1.224E+00
   1    8    7     5     3    9.9265E+00  1.9221E-01   9.7343E+00  0.000E+00  0.000E+00  0.000E+00  1.04992E+03  6.676E-01  1.497E+01  5.241E-02  1.223E+00
   1    8    6     5     4    9.7343E+00  1.3577E-01   9.5985E+00  0.000E+00  0.000E+00  0.000E+00  1.04691E+03  6.637E-01  1.482E+01  3.706E-02  1.221E+00
   1    9    6     6     1    2.6059E+01  2.5489E-01   2.5804E+01  0.000E+00  0.000E+00  0.000E+00  1.04398E+03  1.248E+00  1.200E+01  6.000E-02  1.416E+00
   1   10    7     6     2    2.5804E+01  2.5445E-01   2.5550E+01  0.000E+00  0.000E+00  0.000E+00  1.03942E+03  1.241E+00  1.200E+01  6.000E-02  1.414E+00
   1   11    7     6     3    2.5550E+01  2.5400E-01   2.5296E+01  0.000E+00  0.000E+00  0.000E+00  1.03487E+03  1.233E+00  1.200E+01  6.000E-02  1.411E+00
   1   12    7     6     4    2.5296E+01  2.5356E-01   2.5042E+01  0.000E+00  0.000E+00  0.000E+00  1.03032E+03  1.226E+00  1.200E+01  6.000E-02  1.409E+00
   1   13    7     6     5    2.5042E+01  7.4947E-03   2.5035E+01  0.000E+00  0.000E+00  0.000E+00  1.02713E+03  1.222E+00  1.200E+01  2.400E-02  1.041E-01
   1   14    9     7     1    1.5000E+02  1.3709E+00   1.4863E+02  0.000E+00  0.000E+00  0.000E+00  1.03987E+03  2.288E+00  5.529E+01  5.593E-01  8.170E-01
   1   13    8     7     2    1.4863E+02  1.9261E+00   1.4670E+02  0.000E+00  0.000E+00  0.000E+00  1.03478E+03  2.279E+00  5.525E+01  6.148E-01  1.044E+00
   1   13    7     7     3    1.4670E+02  1.6025E+00   1.4510E+02  0.000E+00  0.000E+00  0.000E+00  1.02969E+03  2.269E+00  5.521E+01  5.584E-01  9.566E-01
   1   13    6     8     1    1.7014E+02  1.0379E+00   1.6910E+02  0.000E+00  0.000E+00  0.000E+00  1.02482E+03  2.950E+00  4.277E+01  4.358E-01  7.938E-01
   1   13    5     8     2    1.6910E+02  2.7239E-01   1.6882E+02  0.000E+00  0.000E+00  0.000E+00  1.01857E+03  2.945E+00  4.271E+01  4.352E-01  2.086E-01
   1   13    4     8     3    1.6882E+02 -2.1827E+00   1.7101E+02  0.000E+00  0.000E+00  0.000E+00  1.01233E+03  2.952E+00  4.280E+01  4.361E+00 -1.668E-01
   1   13    3     8     4    1.7101E+02 -3.5533E+00   1.7456E+02  0.000E+00  0.000E+00  0.000E+00  1.00610E+03  2.970E+00  4.307E+01  4.389E+00 -2.699E-01
   1   13    2     8     5    1.7456E+02 -2.6078E+00   1.7717E+02  0.000E+00  0.000E+00  0.000E+00  9.99865E+02  2.990E+00  4.335E+01  4.418E+00 -1.968E-01
   1   13    1     8     6    1.7717E+02 -2.0167E+00   1.7919E+02  0.000E+00  0.000E+00  0.000E+00  9.94880E+02  3.005E+00  4.357E+01  2.664E+00 -2.524E-01
   1    8    6     9     1    3.7199E+00  0.0000E+00   3.7199E+00  0.000E+00  0.000E+00  0.000E+00  1.08000E+03  1.252E+00  4.000E+00  0.000E+00  1.417E+00
   1    8    5     9     2    3.7199E+00  0.0000E+00   3.7199E+00  0.000E+00  0.000E+00  0.000E+00  1.07950E+03  1.252E+00  4.000E+00  0.000E+00  1.417E+00





UNSATURATED ZONE PACKAGE VOLUMETRIC BUDGET FOR  TIME STEP    30 STRESS PERIOD   17
  ------------------------------------------------------------------------------



     CUMULATIVE VOLUMES      L**3       RATES FOR THIS TIME STEP      L**3/T
     ------------------                 ------------------------

           IN:                                      IN:
           ---                                      ---
        INFILTRATION =   450489249.8055          INFILTRATION =           4.5675

          OUT:                                     OUT:
          ----                                     ----
              UZF ET =   448640567.9421                UZF ET =           4.5675
        UZF RECHARGE =       73224.0000          UZF RECHARGE =       0.0000E+00

            IN - OUT =     1775457.8633              IN - OUT =       0.0000E+00

          STORAGE:                                 STORAGE:
          --------                                 --------
      STORAGE CHANGE =     1775460.3616        STORAGE CHANGE =       1.6599E-15

 PERCENT DISCREPANCY IS DIFFERENCE BETWEEN IN-OUT MINUS CHANGE IN STORAGE
 DIVIDED BY THE AVERAGE OF IN AND OUT TIMES 100

 PERCENT DISCREPANCY =           0.00     PERCENT DISCREPANCY =           0.00






1
  VOLUMETRIC BUDGET FOR AGRICULTURAL FIELDS AT  END OF TIME STEP   30, STRESS PERIOD  17
  ------------------------------------------------------------------------------

     CUMULATIVE VOLUMES      L**3       RATES FOR THIS TIME STEP      L**3/T
     ------------------                 ------------------------

           IN:                                      IN:
           ---                                      ---
           AG WELLS      =   178258384.0000             AG WELLS      =           0.0000
      DIVERSION SEGMENTS =   236511392.0000        DIVERSION SEGMENTS =           3.7199
           GW IRRIGATION =           0.0000             GW IRRIGATION =           0.0000
           SW IRRIGATION =           0.0000             SW IRRIGATION =           0.0000
        SYSTEM LOSSES GW =           0.0000          SYSTEM LOSSES GW =           0.0000
        SYSTEM LOSSES SW =           0.0000          SYSTEM LOSSES SW =           0.0000

                TOTAL IN =   414769792.0000                  TOTAL IN =           3.7199

          OUT:                                     OUT:
          ----                                     ----
           AG WELLS      =           0.0000             AG WELLS      =           0.0000
      DIVERSION SEGMENTS =           0.0000        DIVERSION SEGMENTS =           0.0000
           GW IRRIGATION =   178258384.0000             GW IRRIGATION =           0.0000
           SW IRRIGATION =   236515776.0000             SW IRRIGATION =           3.7200
        SYSTEM LOSSES GW =           0.0000          SYSTEM LOSSES GW =           0.0000
        SYSTEM LOSSES SW =           0.0000          SYSTEM LOSSES SW =           0.0000

               TOTAL OUT =   414774144.0000                 TOTAL OUT =           3.7200

                IN - OUT =       -4352.0000                  IN - OUT =      -7.4387E-05

     PERCENT DISCREPANCY =          -0.00         PERCENT DISCREPANCY =          -0.00



1
  VOLUMETRIC BUDGET FOR ENTIRE MODEL AT END OF TIME STEP   30, STRESS PERIOD  17
  ------------------------------------------------------------------------------

     CUMULATIVE VOLUMES      L**3       RATES FOR THIS TIME STEP      L**3/T
     ------------------                 ------------------------

           IN:                                      IN:
           ---                                      ---
             STORAGE     =   276630400.0000               STORAGE     =           1.2934
       CONSTANT HEAD     =           0.0000         CONSTANT HEAD     =           0.0000
     HEAD DEP BOUNDS     =    12142977.0000       HEAD DEP BOUNDS     =           0.2881
      STREAM LEAKAGE     =   495277216.0000        STREAM LEAKAGE     =          12.1708
        UZF RECHARGE     =       73223.9531          UZF RECHARGE     =           0.0000
               GW ET     =           0.0000                 GW ET     =           0.0000
     SURFACE LEAKAGE     =           0.0000       SURFACE LEAKAGE     =           0.0000
           AG WELLS      =           0.0000             AG WELLS      =           0.0000

                TOTAL IN =   784123776.0000                  TOTAL IN =          13.7524

          OUT:                                     OUT:
          ----                                     ----
             STORAGE     =   161094224.0000               STORAGE     =           3.1017
       CONSTANT HEAD     =           0.0000         CONSTANT HEAD     =           0.0000
     HEAD DEP BOUNDS     =    12148656.0000       HEAD DEP BOUNDS     =           0.2902
      STREAM LEAKAGE     =   432630144.0000        STREAM LEAKAGE     =          10.3605
        UZF RECHARGE     =           0.0000          UZF RECHARGE     =           0.0000
               GW ET     =           0.0000                 GW ET     =           0.0000
     SURFACE LEAKAGE     =           0.0000       SURFACE LEAKAGE     =           0.0000
           AG WELLS      =   178258384.0000             AG WELLS      =           0.0000

               TOTAL OUT =   784131392.0000                 TOTAL OUT =          13.7523

                IN - OUT =       -7616.0000                  IN - OUT =       3.4332E-05

     PERCENT DISCREPANCY =          -0.00         PERCENT DISCREPANCY =           0.00






         TIME SUMMARY AT END OF TIME STEP   30 IN STRESS PERIOD   17
                    SECONDS     MINUTES      HOURS       DAYS        YEARS
                    -----------------------------------------------------------
   TIME STEP LENGTH  87667.      1461.1      24.352      1.0147     2.77799E-03
 STRESS PERIOD TIME 2.63000E+06  43833.      730.56      30.440     8.33397E-02
         TOTAL TIME 4.21664E+07 7.02774E+05  11713.      488.04      1.3362    
1
1
                            STRESS PERIOD NO.   18, LENGTH =   2630000.    
                            -----------------------------------------------

                              NUMBER OF TIME STEPS =    30

                               MULTIPLIER FOR DELT =     1.000

                            INITIAL TIME STEP SIZE =   87666.66    

 REUSING NON-PARAMETER GHB CELLS FROM LAST STRESS PERIOD

      2 GHB CELLS

 REUSING STREAM SEGMENT DATA FROM LAST STRESS PERIOD



            AREAL INFILTRATION RATE
 READING ON UNIT   19 WITH FORMAT: (FREE)              

            1           2           3           4           5           6           7           8           9          10
 ........................................................................................................................
   1   1.0000E-10  2.0000E-10   0.000       0.000       0.000       0.000       0.000       0.000       0.000       0.000    
   2   2.0000E-10  1.0000E-10  2.0000E-10   0.000       0.000      8.0000E-10  8.0000E-10  5.0000E-10   0.000       0.000    
   3    0.000      5.0000E-10  1.0000E-10  1.0000E-10  8.0000E-10  8.0000E-10  5.0000E-10  5.0000E-10   0.000       0.000    
   4   8.0000E-10  5.0000E-10  1.0000E-10  1.0000E-10  1.0000E-10  1.0000E-10  1.0000E-10  1.0000E-10  2.0000E-10   0.000    
   5   8.0000E-10  5.0000E-10  1.0000E-10  1.0000E-10  1.0000E-10  1.0000E-10  1.0000E-10  1.0000E-10  1.0000E-10  1.0000E-10
   6   8.0000E-10  5.0000E-10  5.0000E-10  2.0000E-10  2.0000E-10  1.0000E-10  1.0000E-10  1.0000E-10  1.0000E-10  5.0000E-10
   7   8.0000E-10  5.0000E-10  5.0000E-10  2.0000E-10  2.0000E-10  1.0000E-10  1.0000E-10  2.0000E-10  2.0000E-10   0.000    
   8    0.000      5.0000E-10  5.0000E-10  2.0000E-10  2.0000E-10  1.0000E-10  1.0000E-10  2.0000E-10  5.0000E-10   0.000    
   9    0.000      5.0000E-10  5.0000E-10  2.0000E-10  2.0000E-10  1.0000E-10  1.0000E-10  2.0000E-10  5.0000E-10   0.000    
  10    0.000      5.0000E-10  5.0000E-10  2.0000E-10  2.0000E-10  1.0000E-10  1.0000E-10  2.0000E-10  5.0000E-10  8.0000E-10
  11    0.000      1.0000E-10  1.0000E-10  1.0000E-10  1.0000E-10  1.0000E-10  1.0000E-10  2.0000E-10  5.0000E-10   0.000    
  12   1.0000E-10  1.0000E-10  1.0000E-10  1.0000E-10  1.0000E-10  1.0000E-10  1.0000E-10  1.0000E-10  2.0000E-10   0.000    
  13   1.0000E-10  1.0000E-10  2.0000E-10  2.0000E-10  2.0000E-10  2.0000E-10  2.0000E-10  1.0000E-10  1.0000E-10   0.000    
  14    0.000      2.0000E-10  5.0000E-10  5.0000E-10  5.0000E-10  5.0000E-10  5.0000E-10  2.0000E-10  1.0000E-10   0.000    
  15    0.000       0.000      8.0000E-10  8.0000E-10  8.0000E-10  8.0000E-10   0.000       0.000       0.000       0.000    

                  ET RATE =  5.000000E-08

 USING ET EXTINCTION DEPTH FROM PREVIOUS STRESS PERIOD. CURRENT PERIOD IS:      18

 USING EXTINCTION WATER CONTENT FROM PREVIOUS STRESS PERIOD. CURRENT PERIOD IS:      18

 USING AIR ENTRY PRESSURE FROM PREVIOUS STRESS PERIOD. CURRENT PERIOD IS:      18

 USING ROOT PRESSURE HEAD FROM PREVIOUS STRESS PERIOD. CURRENT PERIOD IS:      18

 USING ROOT ACTIVITY FROM PREVIOUS STRESS PERIOD. CURRENT PERIOD IS:      18

 PROCESSING AG STRESS PERIOD DATA

 READING AG STRESS PERIOD DATA

 READING IRRIGATION SEGMENT

 READING IRRIGATION WELL

 READING SUPPLEMENTAL WELL

 END PROCESSING AG STRESS PERIOD DATA OPTIONS
 
 SOLVING FOR HEAD 
                                                   Max.-Head-Change                         Max.-Flux-Residual
  Residual-Control   Outer-Iter.   Inner-Iter.     Column Row Layer    Maximum-Head-Change  Column Row Layer    Maximum-Flux-Residual          L2-NORM 
          0                 1           2             4    7     1       0.3767556737E-02       4    7    1         0.1969446987E+00      0.6858630030E+00
          0                 2           2             4    7     1      -0.1197984861E-01       4    7    1        -0.6433892025E+00      0.1574200125E+01
          0                 3           2             4    7     1       0.1211331372E-01       4    7    1         0.6687318356E+00      0.1637646988E+01
          0                 4           2             4    7     1      -0.4820025169E-03       4    7    1        -0.2735131905E-01      0.6698284333E-01
          0                 5           1             4    7     1       0.5943296378E-05       4    7    1         0.3466252883E-03      0.8492891083E-03

    ------------------------------------------------
       NWT REQUIRED            5 OUTER ITERATIONS 
       AND A TOTAL OF          9 INNER ITERATIONS.
    ------------------------------------------------

 NO OUTPUT CONTROL FOR STRESS PERIOD   18   TIME STEP    1
 
 SOLVING FOR HEAD 
                                                   Max.-Head-Change                         Max.-Flux-Residual
  Residual-Control   Outer-Iter.   Inner-Iter.     Column Row Layer    Maximum-Head-Change  Column Row Layer    Maximum-Flux-Residual          L2-NORM 
          0                 1           2             4    7     1       0.3744901978E-02       4    7    1         0.1957575669E+00      0.5934890551E+00
          0                 2           2             4    7     1      -0.3642777458E-03       4    7    1        -0.1957580815E-01      0.5934833567E-01
          0                 3           2             4    7     1      -0.2292904492E-01       5    8    1        -0.1231697393E+01      0.3030608469E+01
          0                 4           2             4    7     1       0.2389188312E-01       5    8    1         0.1318990126E+01      0.3230865458E+01
          0                 5           2             4    7     1      -0.9509152854E-03       5    8    1        -0.5396077762E-01      0.1321751924E+00
          0                 6           1             4    7     1       0.1173388778E-04       5    8    1         0.6843551716E-03      0.1676308505E-02

    ------------------------------------------------
       NWT REQUIRED            6 OUTER ITERATIONS 
       AND A TOTAL OF         11 INNER ITERATIONS.
    ------------------------------------------------

 NO OUTPUT CONTROL FOR STRESS PERIOD   18   TIME STEP    2
 
 SOLVING FOR HEAD 
                                                   Max.-Head-Change                         Max.-Flux-Residual
  Residual-Control   Outer-Iter.   Inner-Iter.     Column Row Layer    Maximum-Head-Change  Column Row Layer    Maximum-Flux-Residual          L2-NORM 
          0                 1           2             4    7     1       0.3722486991E-02       4    7    1         0.1945829727E+00      0.5913470880E+00
          0                 2           2             4    7     1      -0.3620973760E-03       4    7    1        -0.1945834854E-01      0.5913424074E-01
          0                 3           2             4    7     1      -0.2296753429E-01       5    8    1        -0.1233763056E+01      0.3035702736E+01
          0                 4           2             4    7     1       0.2393179864E-01       5    8    1         0.1321193722E+01      0.3236284417E+01
          0                 5           2             4    7     1      -0.9525039696E-03       5    8    1        -0.5405093026E-01      0.1323970592E+00
          0                 6           1             4    7     1       0.1175349101E-04       5    8    1         0.6854985274E-03      0.1679111494E-02

    ------------------------------------------------
       NWT REQUIRED            6 OUTER ITERATIONS 
       AND A TOTAL OF         11 INNER ITERATIONS.
    ------------------------------------------------

 NO OUTPUT CONTROL FOR STRESS PERIOD   18   TIME STEP    3
 
 SOLVING FOR HEAD 
                                                   Max.-Head-Change                         Max.-Flux-Residual
  Residual-Control   Outer-Iter.   Inner-Iter.     Column Row Layer    Maximum-Head-Change  Column Row Layer    Maximum-Flux-Residual          L2-NORM 
          0                 1           2             4    7     1       0.3700307945E-02       4    7    1         0.1934207749E+00      0.5899897841E+00
          0                 2           2             4    7     1      -0.3599399564E-03       4    7    1        -0.1934212854E-01      0.5899450589E-01
          0                 3           2             4    7     1      -0.2297586925E-01       5    8    1        -0.1234209324E+01      0.3036811457E+01
          0                 4           2             4    7     1       0.2394032768E-01       5    8    1         0.1321664609E+01      0.3237437966E+01
          0                 5           2             4    7     1      -0.9528434354E-03       5    8    1        -0.5407019497E-01      0.1324442560E+00
          0                 6           1             4    7     1       0.1175767995E-04       5    8    1         0.6857428546E-03      0.1679715629E-02

    ------------------------------------------------
       NWT REQUIRED            6 OUTER ITERATIONS 
       AND A TOTAL OF         11 INNER ITERATIONS.
    ------------------------------------------------

 NO OUTPUT CONTROL FOR STRESS PERIOD   18   TIME STEP    4
 
 SOLVING FOR HEAD 
                                                   Max.-Head-Change                         Max.-Flux-Residual
  Residual-Control   Outer-Iter.   Inner-Iter.     Column Row Layer    Maximum-Head-Change  Column Row Layer    Maximum-Flux-Residual          L2-NORM 
          0                 1           2             4    7     1       0.3678228561E-02       4    7    1         0.1922634465E+00      0.5892322381E+00
          0                 2           2             4    7     1      -0.3577922313E-03       4    7    1        -0.1922639550E-01      0.5891154869E-01
          0                 3           2             4    7     1      -0.2298355761E-01       5    8    1        -0.1234620847E+01      0.3037834178E+01
          0                 4           2             4    7     1       0.2394818432E-01       5    8    1         0.1322098373E+01      0.3238500576E+01
          0                 5           2             4    7     1      -0.9531561387E-03       5    8    1        -0.5408794094E-01      0.1324877236E+00
          0                 6           1             4    7     1       0.1176153823E-04       5    8    1         0.6859679067E-03      0.1680266629E-02

    ------------------------------------------------
       NWT REQUIRED            6 OUTER ITERATIONS 
       AND A TOTAL OF         11 INNER ITERATIONS.
    ------------------------------------------------

 NO OUTPUT CONTROL FOR STRESS PERIOD   18   TIME STEP    5
 
 SOLVING FOR HEAD 
                                                   Max.-Head-Change                         Max.-Flux-Residual
  Residual-Control   Outer-Iter.   Inner-Iter.     Column Row Layer    Maximum-Head-Change  Column Row Layer    Maximum-Flux-Residual          L2-NORM 
          0                 1           2             4    7     1       0.3656249824E-02       4    7    1         0.1911112853E+00      0.5889380259E+00
          0                 2           2             4    7     1      -0.3556542969E-03       4    7    1        -0.1911117920E-01      0.5887225375E-01
          0                 3           2             4    7     1      -0.2299067704E-01       5    8    1        -0.1235001684E+01      0.3038780728E+01
          0                 4           2             4    7     1       0.2395544943E-01       5    8    1         0.1322499471E+01      0.3239483187E+01
          0                 5           2             4    7     1      -0.9534452982E-03       5    8    1        -0.5410435051E-01      0.1325279222E+00
          0                 6           1             4    7     1       0.1176510627E-04       5    8    1         0.6861760232E-03      0.1682123221E-02

    ------------------------------------------------
       NWT REQUIRED            6 OUTER ITERATIONS 
       AND A TOTAL OF         11 INNER ITERATIONS.
    ------------------------------------------------

 NO OUTPUT CONTROL FOR STRESS PERIOD   18   TIME STEP    6
 
 SOLVING FOR HEAD 
                                                   Max.-Head-Change                         Max.-Flux-Residual
  Residual-Control   Outer-Iter.   Inner-Iter.     Column Row Layer    Maximum-Head-Change  Column Row Layer    Maximum-Flux-Residual          L2-NORM 
          0                 1           2             4    7     1       0.3634647006E-02       4    7    1         0.1899790706E+00      0.5889786690E+00
          0                 2           2             4    7     1      -0.3535529290E-03       4    7    1        -0.1899795754E-01      0.5886483340E-01
          0                 3           2             4    7     1      -0.2299728340E-01       5    8    1        -0.1235355051E+01      0.3039659352E+01
          0                 4           2             4    7     1       0.2396218296E-01       5    8    1         0.1322871228E+01      0.3240397203E+01
          0                 5           2             4    7     1      -0.9537133007E-03       5    8    1        -0.5411955968E-01      0.1325653229E+00
          0                 6           1             4    7     1       0.1176841343E-04       5    8    1         0.6863689082E-03      0.1681242070E-02

    ------------------------------------------------
       NWT REQUIRED            6 OUTER ITERATIONS 
       AND A TOTAL OF         11 INNER ITERATIONS.
    ------------------------------------------------

 NO OUTPUT CONTROL FOR STRESS PERIOD   18   TIME STEP    7
 
 SOLVING FOR HEAD 
                                                   Max.-Head-Change                         Max.-Flux-Residual
  Residual-Control   Outer-Iter.   Inner-Iter.     Column Row Layer    Maximum-Head-Change  Column Row Layer    Maximum-Flux-Residual          L2-NORM 
          0                 1           2             4    7     1       0.3613136029E-02       4    7    1         0.1888516188E+00      0.5892476118E+00
          0                 2           2             4    7     1      -0.3514604946E-03       4    7    1        -0.1888521217E-01      0.5887930477E-01
          0                 3           2             4    7     1      -0.2300343632E-01       5    8    1        -0.1235683992E+01      0.3040476942E+01
          0                 4           2             4    7     1       0.2396844511E-01       5    8    1         0.1323216956E+01      0.3241244179E+01
          0                 5           2             4    7     1      -0.9539625417E-03       5    8    1        -0.5413370397E-01      0.1325999714E+00
          0                 6           1             4    7     1       0.1177148916E-04       5    8    1         0.6865482890E-03      0.1681686617E-02

    ------------------------------------------------
       NWT REQUIRED            6 OUTER ITERATIONS 
       AND A TOTAL OF         11 INNER ITERATIONS.
    ------------------------------------------------

 NO OUTPUT CONTROL FOR STRESS PERIOD   18   TIME STEP    8
 
 SOLVING FOR HEAD 
                                                   Max.-Head-Change                         Max.-Flux-Residual
  Residual-Control   Outer-Iter.   Inner-Iter.     Column Row Layer    Maximum-Head-Change  Column Row Layer    Maximum-Flux-Residual          L2-NORM 
          0                 1           2             4    7     1       0.3591857243E-02       4    7    1         0.1877362930E+00      0.5896826661E+00
          0                 2           2             4    7     1      -0.3493906466E-03       4    7    1        -0.1877367942E-01      0.5890903946E-01
          0                 3           2             4    7     1      -0.2300918147E-01       5    8    1        -0.1235991070E+01      0.3041240611E+01
          0                 4           2             4    7     1       0.2397428434E-01       5    8    1         0.1323539338E+01      0.3242034060E+01
          0                 5           2             4    7     1      -0.9541949496E-03       5    8    1        -0.5414689314E-01      0.1326322877E+00
          0                 6           1             4    7     1       0.1177435710E-04       5    8    1         0.6867155710E-03      0.1682099026E-02

    ------------------------------------------------
       NWT REQUIRED            6 OUTER ITERATIONS 
       AND A TOTAL OF         11 INNER ITERATIONS.
    ------------------------------------------------

 NO OUTPUT CONTROL FOR STRESS PERIOD   18   TIME STEP    9
 
 SOLVING FOR HEAD 
                                                   Max.-Head-Change                         Max.-Flux-Residual
  Residual-Control   Outer-Iter.   Inner-Iter.     Column Row Layer    Maximum-Head-Change  Column Row Layer    Maximum-Flux-Residual          L2-NORM 
          0                 1           2             4    7     1       0.3570671534E-02       4    7    1         0.1866256419E+00      0.5902138058E+00
          0                 2           2             4    7     1      -0.3473298517E-03       4    7    1        -0.1866261412E-01      0.5894806017E-01
          0                 3           2             4    7     1      -0.2301455529E-01       5    8    1        -0.1236278080E+01      0.3041954308E+01
          0                 4           2             4    7     1       0.2397973768E-01       5    8    1         0.1323840407E+01      0.3242772369E+01
          0                 5           2             4    7     1      -0.9544119988E-03       5    8    1        -0.5415921038E-01      0.1326625101E+00
          0                 6           1             4    7     1       0.1177703506E-04       5    8    1         0.6868717799E-03      0.1682480892E-02

    ------------------------------------------------
       NWT REQUIRED            6 OUTER ITERATIONS 
       AND A TOTAL OF         11 INNER ITERATIONS.
    ------------------------------------------------

 NO OUTPUT CONTROL FOR STRESS PERIOD   18   TIME STEP   10
 
 SOLVING FOR HEAD 
                                                   Max.-Head-Change                         Max.-Flux-Residual
  Residual-Control   Outer-Iter.   Inner-Iter.     Column Row Layer    Maximum-Head-Change  Column Row Layer    Maximum-Flux-Residual          L2-NORM 
          0                 1           2             4    7     1       0.3549853390E-02       4    7    1         0.1855345452E+00      0.5907956451E+00
          0                 2           2             4    7     1      -0.3453048115E-03       4    7    1        -0.1855350427E-01      0.5899192024E-01
          0                 3           2             4    7     1      -0.2301959812E-01       5    8    1        -0.1236547404E+01      0.3042624018E+01
          0                 4           2             4    7     1       0.2398484892E-01       5    8    1         0.1324122596E+01      0.3243463695E+01
          0                 5           2             4    7     1      -0.9546154325E-03       5    8    1        -0.5417075513E-01      0.1326907845E+00
          0                 6           1             4    7     1       0.1177954579E-04       5    8    1         0.6870181846E-03      0.1682838739E-02

    ------------------------------------------------
       NWT REQUIRED            6 OUTER ITERATIONS 
       AND A TOTAL OF         11 INNER ITERATIONS.
    ------------------------------------------------

 NO OUTPUT CONTROL FOR STRESS PERIOD   18   TIME STEP   11
 
 SOLVING FOR HEAD 
                                                   Max.-Head-Change                         Max.-Flux-Residual
  Residual-Control   Outer-Iter.   Inner-Iter.     Column Row Layer    Maximum-Head-Change  Column Row Layer    Maximum-Flux-Residual          L2-NORM 
          0                 1           2             4    7     1       0.3528986151E-02       4    7    1         0.1844404136E+00      0.5913877709E+00
          0                 2           2             4    7     1      -0.3432749956E-03       4    7    1        -0.1844409093E-01      0.5903675158E-01
          0                 3           2             4    7     1      -0.2302433719E-01       5    8    1        -0.1236800297E+01      0.3043253094E+01
          0                 4           2             4    7     1       0.2398964363E-01       5    8    1         0.1324387302E+01      0.3244112213E+01
          0                 5           2             4    7     1      -0.9548062677E-03       5    8    1        -0.5418158469E-01      0.1327173163E+00
          0                 6           1             4    7     1       0.1178190059E-04       5    8    1         0.6871555295E-03      0.1683174475E-02

    ------------------------------------------------
       NWT REQUIRED            6 OUTER ITERATIONS 
       AND A TOTAL OF         11 INNER ITERATIONS.
    ------------------------------------------------

 NO OUTPUT CONTROL FOR STRESS PERIOD   18   TIME STEP   12
 
 SOLVING FOR HEAD 
                                                   Max.-Head-Change                         Max.-Flux-Residual
  Residual-Control   Outer-Iter.   Inner-Iter.     Column Row Layer    Maximum-Head-Change  Column Row Layer    Maximum-Flux-Residual          L2-NORM 
          0                 1           2             4    7     1       0.3508487800E-02       4    7    1         0.1833658294E+00      0.5919778188E+00
          0                 2           2             4    7     1      -0.3412810622E-03       4    7    1        -0.1833663233E-01      0.5908145908E-01
          0                 3           2             4    7     1      -0.2302880074E-01       5    8    1        -0.1237038432E+01      0.3043845440E+01
          0                 4           2             4    7     1       0.2399415401E-01       5    8    1         0.1324636312E+01      0.3244722286E+01
          0                 5           2             4    7     1      -0.9549857860E-03       5    8    1        -0.5419177209E-01      0.1327422759E+00
          0                 6           1             4    7     1       0.1178411559E-04       5    8    1         0.6872847441E-03      0.1683485516E-02

    ------------------------------------------------
       NWT REQUIRED            6 OUTER ITERATIONS 
       AND A TOTAL OF         11 INNER ITERATIONS.
    ------------------------------------------------

 NO OUTPUT CONTROL FOR STRESS PERIOD   18   TIME STEP   13
 
 SOLVING FOR HEAD 
                                                   Max.-Head-Change                         Max.-Flux-Residual
  Residual-Control   Outer-Iter.   Inner-Iter.     Column Row Layer    Maximum-Head-Change  Column Row Layer    Maximum-Flux-Residual          L2-NORM 
          0                 1           2             4    7     1       0.3488072001E-02       4    7    1         0.1822956429E+00      0.5925109183E+00
          0                 2           2             4    7     1      -0.3392951594E-03       4    7    1        -0.1822961352E-01      0.5912117484E-01
          0                 3           2             4    7     1      -0.2303301513E-01       5    8    1        -0.1237263176E+01      0.3044404343E+01
          0                 4           2             4    7     1       0.2399840558E-01       5    8    1         0.1324871034E+01      0.3245297359E+01
          0                 5           2             4    7     1      -0.9551550034E-03       5    8    1        -0.5420137493E-01      0.1327658004E+00
          0                 6           1             4    7     1       0.1178620345E-04       5    8    1         0.6874065207E-03      0.1683784547E-02

    ------------------------------------------------
       NWT REQUIRED            6 OUTER ITERATIONS 
       AND A TOTAL OF         11 INNER ITERATIONS.
    ------------------------------------------------

 NO OUTPUT CONTROL FOR STRESS PERIOD   18   TIME STEP   14
 
 SOLVING FOR HEAD 
                                                   Max.-Head-Change                         Max.-Flux-Residual
  Residual-Control   Outer-Iter.   Inner-Iter.     Column Row Layer    Maximum-Head-Change  Column Row Layer    Maximum-Flux-Residual          L2-NORM 
          0                 1           2             4    7     1       0.3467882205E-02       4    7    1         0.1812371011E+00      0.5930045084E+00
          0                 2           2             4    7     1      -0.3373312401E-03       4    7    1        -0.1812375917E-01      0.5915663348E-01
          0                 3           2             4    7     1      -0.2303699493E-01       5    8    1        -0.1237475310E+01      0.3044933698E+01
          0                 4           2             4    7     1       0.2400241446E-01       5    8    1         0.1325092355E+01      0.3245839698E+01
          0                 5           2             4    7     1      -0.9553145612E-03       5    8    1        -0.5421042954E-01      0.1327879966E+00
          0                 6           1             4    7     1       0.1178817235E-04       5    8    1         0.6875213580E-03      0.1684070993E-02

    ------------------------------------------------
       NWT REQUIRED            6 OUTER ITERATIONS 
       AND A TOTAL OF         11 INNER ITERATIONS.
    ------------------------------------------------

 NO OUTPUT CONTROL FOR STRESS PERIOD   18   TIME STEP   15
 
 SOLVING FOR HEAD 
                                                   Max.-Head-Change                         Max.-Flux-Residual
  Residual-Control   Outer-Iter.   Inner-Iter.     Column Row Layer    Maximum-Head-Change  Column Row Layer    Maximum-Flux-Residual          L2-NORM 
          0                 1           2             4    7     1       0.3447911844E-02       4    7    1         0.1801902773E+00      0.5934332137E+00
          0                 2           2             4    7     1      -0.3353886659E-03       4    7    1        -0.1801907661E-01      0.5918632125E-01
          0                 3           2             4    7     1      -0.2304076681E-01       5    8    1        -0.1237676267E+01      0.3045432203E+01
          0                 4           2             4    7     1       0.2400620837E-01       5    8    1         0.1325301808E+01      0.3246352775E+01
          0                 5           2             4    7     1      -0.9554655634E-03       5    8    1        -0.5421899860E-01      0.1328089872E+00
          0                 6           1             4    7     1       0.1179003574E-04       5    8    1         0.6876300315E-03      0.1684336250E-02

    ------------------------------------------------
       NWT REQUIRED            6 OUTER ITERATIONS 
       AND A TOTAL OF         11 INNER ITERATIONS.
    ------------------------------------------------

 NO OUTPUT CONTROL FOR STRESS PERIOD   18   TIME STEP   16
 
 SOLVING FOR HEAD 
                                                   Max.-Head-Change                         Max.-Flux-Residual
  Residual-Control   Outer-Iter.   Inner-Iter.     Column Row Layer    Maximum-Head-Change  Column Row Layer    Maximum-Flux-Residual          L2-NORM 
          0                 1           2             4    7     1       0.3428023125E-02       4    7    1         0.1791474665E+00      0.5937898182E+00
          0                 2           2             4    7     1      -0.3334540335E-03       4    7    1        -0.1791479539E-01      0.5920967399E-01
          0                 3           2             4    7     1      -0.2304434504E-01       5    8    1        -0.1237866765E+01      0.3045906911E+01
          0                 4           2             4    7     1       0.2400980124E-01       5    8    1         0.1325500157E+01      0.3246838798E+01
          0                 5           2             4    7     1      -0.9556085637E-03       5    8    1        -0.5422711338E-01      0.1328288669E+00
          0                 6           1             4    7     1       0.1179180032E-04       5    8    1         0.6877329547E-03      0.1684592552E-02

    ------------------------------------------------
       NWT REQUIRED            6 OUTER ITERATIONS 
       AND A TOTAL OF         11 INNER ITERATIONS.
    ------------------------------------------------

 NO OUTPUT CONTROL FOR STRESS PERIOD   18   TIME STEP   17
 
 SOLVING FOR HEAD 
                                                   Max.-Head-Change                         Max.-Flux-Residual
  Residual-Control   Outer-Iter.   Inner-Iter.     Column Row Layer    Maximum-Head-Change  Column Row Layer    Maximum-Flux-Residual          L2-NORM 
          0                 1           2             4    7     1       0.3408355245E-02       4    7    1         0.1781162533E+00      0.5940680993E+00
          0                 2           2             4    7     1      -0.3315408829E-03       4    7    1        -0.1781167390E-01      0.5922509129E-01
          0                 3           2             4    7     1      -0.2304774197E-01       5    8    1        -0.1238047521E+01      0.3046356002E+01
          0                 4           2             4    7     1       0.2401320687E-01       5    8    1         0.1325688168E+01      0.3247299407E+01
          0                 5           2             4    7     1      -0.9557441118E-03       4    8    1        -0.5423480741E-01      0.1328477083E+00
          0                 6           1             4    7     1       0.1179347295E-04       5    8    1         0.6878305055E-03      0.1684828111E-02

    ------------------------------------------------
       NWT REQUIRED            6 OUTER ITERATIONS 
       AND A TOTAL OF         11 INNER ITERATIONS.
    ------------------------------------------------

 NO OUTPUT CONTROL FOR STRESS PERIOD   18   TIME STEP   18
 
 SOLVING FOR HEAD 
                                                   Max.-Head-Change                         Max.-Flux-Residual
  Residual-Control   Outer-Iter.   Inner-Iter.     Column Row Layer    Maximum-Head-Change  Column Row Layer    Maximum-Flux-Residual          L2-NORM 
          0                 1           2             4    7     1       0.3388900534E-02       4    7    1         0.1770964904E+00      0.5942758300E+00
          0                 2           2             4    7     1      -0.3296484677E-03       4    7    1        -0.1770969746E-01      0.5923441038E-01
          0                 3           2             4    7     1      -0.2305097544E-01       5    8    1        -0.1238219548E+01      0.3046784133E+01
          0                 4           2             4    7     1       0.2401644375E-01       5    8    1         0.1325866866E+01      0.3247737250E+01
          0                 5           2             4    7     1      -0.9558729434E-03       4    8    1        -0.5424212038E-01      0.1328656303E+00
          0                 6           1             4    7     1       0.1179506290E-04       5    8    1         0.6879232296E-03      0.1685056644E-02

    ------------------------------------------------
       NWT REQUIRED            6 OUTER ITERATIONS 
       AND A TOTAL OF         11 INNER ITERATIONS.
    ------------------------------------------------

 NO OUTPUT CONTROL FOR STRESS PERIOD   18   TIME STEP   19
 
 SOLVING FOR HEAD 
                                                   Max.-Head-Change                         Max.-Flux-Residual
  Residual-Control   Outer-Iter.   Inner-Iter.     Column Row Layer    Maximum-Head-Change  Column Row Layer    Maximum-Flux-Residual          L2-NORM 
          0                 1           2             4    7     1       0.3369526583E-02       4    7    1         0.1760804154E+00      0.5943973272E+00
          0                 2           2             4    7     1      -0.3277639081E-03       4    7    1        -0.1760808979E-01      0.5923501965E-01
          0                 3           2             4    7     1      -0.2305405520E-01       5    8    1        -0.1238383266E+01      0.3047191474E+01
          0                 4           2             4    7     1       0.2401952117E-01       5    8    1         0.1326036757E+01      0.3248153503E+01
          0                 5           2             4    7     1      -0.9559954288E-03       4    8    1        -0.5424907310E-01      0.1328826510E+00
          0                 6           1             4    7     1       0.1179657399E-04       5    8    1         0.6880113660E-03      0.1685275039E-02

    ------------------------------------------------
       NWT REQUIRED            6 OUTER ITERATIONS 
       AND A TOTAL OF         11 INNER ITERATIONS.
    ------------------------------------------------

 NO OUTPUT CONTROL FOR STRESS PERIOD   18   TIME STEP   20
 
 SOLVING FOR HEAD 
                                                   Max.-Head-Change                         Max.-Flux-Residual
  Residual-Control   Outer-Iter.   Inner-Iter.     Column Row Layer    Maximum-Head-Change  Column Row Layer    Maximum-Flux-Residual          L2-NORM 
          0                 1           2             4    7     1       0.3350503433E-02       4    7    1         0.1750832573E+00      0.5944460043E+00
          0                 2           2             4    7     1      -0.3259134722E-03       4    7    1        -0.1750837384E-01      0.5922884084E-01
          0                 3           2             4    7     1      -0.2305699054E-01       5    8    1        -0.1238539274E+01      0.3047579921E+01
          0                 4           2             4    7     1       0.2402245059E-01       5    8    1         0.1326198479E+01      0.3248549767E+01
          0                 5           2             4    7     1      -0.9561120228E-03       4    8    1        -0.5425569165E-01      0.1328988585E+00
          0                 6           1             4    7     1       0.1179801284E-04       5    8    1         0.6880952844E-03      0.1685477059E-02

    ------------------------------------------------
       NWT REQUIRED            6 OUTER ITERATIONS 
       AND A TOTAL OF         11 INNER ITERATIONS.
    ------------------------------------------------

 NO OUTPUT CONTROL FOR STRESS PERIOD   18   TIME STEP   21
 
 SOLVING FOR HEAD 
                                                   Max.-Head-Change                         Max.-Flux-Residual
  Residual-Control   Outer-Iter.   Inner-Iter.     Column Row Layer    Maximum-Head-Change  Column Row Layer    Maximum-Flux-Residual          L2-NORM 
          0                 1           2             4    7     1       0.3331546400E-02       4    7    1         0.1740895583E+00      0.5944132201E+00
          0                 2           2             4    7     1      -0.3240694674E-03       4    7    1        -0.1740900378E-01      0.5921586343E-01
          0                 3           2             4    7     1      -0.2305979669E-01       5    8    1        -0.1238688289E+01      0.3047950883E+01
          0                 4           2             4    7     1       0.2402524597E-01       5    8    1         0.1326352796E+01      0.3248927888E+01
          0                 5           2             4    7     1      -0.9562232821E-03       4    8    1        -0.5426200748E-01      0.1329143251E+00
          0                 6           1             4    7     1       0.1179938582E-04       5    8    1         0.6881753441E-03      0.1685672645E-02

    ------------------------------------------------
       NWT REQUIRED            6 OUTER ITERATIONS 
       AND A TOTAL OF         11 INNER ITERATIONS.
    ------------------------------------------------

 NO OUTPUT CONTROL FOR STRESS PERIOD   18   TIME STEP   22
 
 SOLVING FOR HEAD 
                                                   Max.-Head-Change                         Max.-Flux-Residual
  Residual-Control   Outer-Iter.   Inner-Iter.     Column Row Layer    Maximum-Head-Change  Column Row Layer    Maximum-Flux-Residual          L2-NORM 
          0                 1           2             4    7     1       0.3312663847E-02       4    7    1         0.1730992873E+00      0.5943026049E+00
          0                 2           2             4    7     1      -0.3222327076E-03       4    7    1        -0.1730997652E-01      0.5919546298E-01
          0                 3           2             4    7     1      -0.2306247804E-01       5    8    1        -0.1238830609E+01      0.3048305109E+01
          0                 4           2             4    7     1       0.2402791193E-01       5    8    1         0.1326499970E+01      0.3249288507E+01
          0                 5           2             4    7     1      -0.9563293906E-03       4    8    1        -0.5426803087E-01      0.1329290783E+00
          0                 6           1             4    7     1       0.1180069517E-04       5    8    1         0.6882517241E-03      0.1685859446E-02

    ------------------------------------------------
       NWT REQUIRED            6 OUTER ITERATIONS 
       AND A TOTAL OF         11 INNER ITERATIONS.
    ------------------------------------------------

 NO OUTPUT CONTROL FOR STRESS PERIOD   18   TIME STEP   23
 
 SOLVING FOR HEAD 
                                                   Max.-Head-Change                         Max.-Flux-Residual
  Residual-Control   Outer-Iter.   Inner-Iter.     Column Row Layer    Maximum-Head-Change  Column Row Layer    Maximum-Flux-Residual          L2-NORM 
          0                 1           2             4    7     1       0.3294127081E-02       4    7    1         0.1721276078E+00      0.5941323770E+00
          0                 2           2             4    7     1      -0.3204295837E-03       4    7    1        -0.1721280843E-01      0.5916905201E-01
          0                 3           2             4    7     1      -0.2306504385E-01       5    8    1        -0.1238966772E+01      0.3048644093E+01
          0                 4           2             4    7     1       0.2403045992E-01       5    8    1         0.1326640633E+01      0.3249633187E+01
          0                 5           2             4    7     1      -0.9564308037E-03       4    8    1        -0.5427378796E-01      0.1329431876E+00
          0                 6           1             4    7     1       0.1180194639E-04       5    8    1         0.6883246920E-03      0.1686040182E-02

    ------------------------------------------------
       NWT REQUIRED            6 OUTER ITERATIONS 
       AND A TOTAL OF         11 INNER ITERATIONS.
    ------------------------------------------------

 NO OUTPUT CONTROL FOR STRESS PERIOD   18   TIME STEP   24
 
 SOLVING FOR HEAD 
                                                   Max.-Head-Change                         Max.-Flux-Residual
  Residual-Control   Outer-Iter.   Inner-Iter.     Column Row Layer    Maximum-Head-Change  Column Row Layer    Maximum-Flux-Residual          L2-NORM 
          0                 1           2             4    7     1       0.3275658085E-02       4    7    1         0.1711591272E+00      0.5938839925E+00
          0                 2           2             4    7     1      -0.3186330521E-03       4    7    1        -0.1711596023E-01      0.5913531609E-01
          0                 3           2             4    7     1      -0.2306750266E-01       5    8    1        -0.1239097084E+01      0.3048968877E+01
          0                 4           2             4    7     1       0.2403289699E-01       5    8    1         0.1326775164E+01      0.3249962857E+01
          0                 5           2             4    7     1      -0.9565278018E-03       4    8    1        -0.5427929439E-01      0.1329566742E+00
          0                 6           1             4    7     1       0.1180314339E-04       5    8    1         0.6883944948E-03      0.1686212688E-02

    ------------------------------------------------
       NWT REQUIRED            6 OUTER ITERATIONS 
       AND A TOTAL OF         11 INNER ITERATIONS.
    ------------------------------------------------

 NO OUTPUT CONTROL FOR STRESS PERIOD   18   TIME STEP   25
 
 SOLVING FOR HEAD 
                                                   Max.-Head-Change                         Max.-Flux-Residual
  Residual-Control   Outer-Iter.   Inner-Iter.     Column Row Layer    Maximum-Head-Change  Column Row Layer    Maximum-Flux-Residual          L2-NORM 
          0                 1           2             4    7     1       0.3257258012E-02       4    7    1         0.1701941603E+00      0.5935753991E+00
          0                 2           2             4    7     1      -0.3168432243E-03       4    7    1        -0.1701946339E-01      0.5909612807E-01
          0                 3           2             4    7     1      -0.2306986334E-01       5    8    1        -0.1239222193E+01      0.3049279979E+01
          0                 4           2             4    7     1       0.2403523237E-01       5    8    1         0.1326904085E+01      0.3250278752E+01
          0                 5           2             4    7     1      -0.9566207523E-03       4    8    1        -0.5428457115E-01      0.1329695955E+00
          0                 6           1             4    7     1       0.1180428987E-04       5    8    1         0.6884613845E-03      0.1686374515E-02

    ------------------------------------------------
       NWT REQUIRED            6 OUTER ITERATIONS 
       AND A TOTAL OF         11 INNER ITERATIONS.
    ------------------------------------------------

 NO OUTPUT CONTROL FOR STRESS PERIOD   18   TIME STEP   26
 
 SOLVING FOR HEAD 
                                                   Max.-Head-Change                         Max.-Flux-Residual
  Residual-Control   Outer-Iter.   Inner-Iter.     Column Row Layer    Maximum-Head-Change  Column Row Layer    Maximum-Flux-Residual          L2-NORM 
          0                 1           2             4    7     1       0.3239197079E-02       4    7    1         0.1692474971E+00      0.5932042776E+00
          0                 2           2             4    7     1      -0.3150863862E-03       4    7    1        -0.1692479696E-01      0.5905124717E-01
          0                 3           2             4    7     1      -0.2307212851E-01       5    8    1        -0.1239342167E+01      0.3049578798E+01
          0                 4           2             4    7     1       0.2403747057E-01       5    8    1         0.1327027641E+01      0.3250581525E+01
          0                 5           2             4    7     1      -0.9567098360E-03       4    8    1        -0.5428962858E-01      0.1329819807E+00
          0                 6           1             4    7     1       0.1180538987E-04       5    8    1         0.6885254943E-03      0.1686533701E-02

    ------------------------------------------------
       NWT REQUIRED            6 OUTER ITERATIONS 
       AND A TOTAL OF         11 INNER ITERATIONS.
    ------------------------------------------------

 NO OUTPUT CONTROL FOR STRESS PERIOD   18   TIME STEP   27
 
 SOLVING FOR HEAD 
                                                   Max.-Head-Change                         Max.-Flux-Residual
  Residual-Control   Outer-Iter.   Inner-Iter.     Column Row Layer    Maximum-Head-Change  Column Row Layer    Maximum-Flux-Residual          L2-NORM 
          0                 1           2             4    7     1       0.3221197428E-02       4    7    1         0.1683036879E+00      0.5927741466E+00
          0                 2           2             4    7     1      -0.3133355085E-03       4    7    1        -0.1683041587E-01      0.5900076340E-01
          0                 3           2             4    7     1      -0.2307430448E-01       5    8    1        -0.1239457306E+01      0.3049865674E+01
          0                 4           2             4    7     1       0.2403961634E-01       5    8    1         0.1327146089E+01      0.3250871800E+01
          0                 5           2             4    7     1      -0.9567952396E-03       4    8    1        -0.5429447705E-01      0.1329938607E+00
          0                 6           1             4    7     1       0.1180644349E-04       5    8    1         0.6885869464E-03      0.1686679362E-02

    ------------------------------------------------
       NWT REQUIRED            6 OUTER ITERATIONS 
       AND A TOTAL OF         11 INNER ITERATIONS.
    ------------------------------------------------

 NO OUTPUT CONTROL FOR STRESS PERIOD   18   TIME STEP   28
 
 SOLVING FOR HEAD 
                                                   Max.-Head-Change                         Max.-Flux-Residual
  Residual-Control   Outer-Iter.   Inner-Iter.     Column Row Layer    Maximum-Head-Change  Column Row Layer    Maximum-Flux-Residual          L2-NORM 
          0                 1           2             4    7     1       0.3203398055E-02       4    7    1         0.1673704212E+00      0.5922930275E+00
          0                 2           2             4    7     1      -0.3116041131E-03       4    7    1        -0.1673708907E-01      0.5894577157E-01
          0                 3           2             4    7     1      -0.2307639698E-01       5    8    1        -0.1239568024E+01      0.3050141422E+01
          0                 4           2             4    7     1       0.2404167653E-01       5    8    1         0.1327259817E+01      0.3251150791E+01
          0                 5           2             4    7     1      -0.9568772377E-03       4    8    1        -0.5429913231E-01      0.1330052736E+00
          0                 6           1             4    7     1       0.1180745521E-04       5    8    1         0.6886459539E-03      0.1686825319E-02

    ------------------------------------------------
       NWT REQUIRED            6 OUTER ITERATIONS 
       AND A TOTAL OF         11 INNER ITERATIONS.
    ------------------------------------------------

 NO OUTPUT CONTROL FOR STRESS PERIOD   18   TIME STEP   29
 
 SOLVING FOR HEAD 
                                                   Max.-Head-Change                         Max.-Flux-Residual
  Residual-Control   Outer-Iter.   Inner-Iter.     Column Row Layer    Maximum-Head-Change  Column Row Layer    Maximum-Flux-Residual          L2-NORM 
          0                 1           2             4    7     1       0.3185793931E-02       4    7    1         0.1664475387E+00      0.5917607636E+00
          0                 2           2             4    7     1      -0.3098917099E-03       4    7    1        -0.1664480069E-01      0.5888529380E-01
          0                 3           2             4    7     1      -0.2307841269E-01       5    8    1        -0.1239674624E+01      0.3050406990E+01
          0                 4           2             4    7     1       0.2404365809E-01       5    8    1         0.1327369204E+01      0.3251418851E+01
          0                 5           2             4    7     1      -0.9569561062E-03       4    8    1        -0.5430361009E-01      0.1330162381E+00
          0                 6           1             4    7     1       0.1180842852E-04       5    8    1         0.6887027125E-03      0.1686961808E-02

    ------------------------------------------------
       NWT REQUIRED            6 OUTER ITERATIONS 
       AND A TOTAL OF         11 INNER ITERATIONS.
    ------------------------------------------------

 NO OUTPUT CONTROL FOR STRESS PERIOD   18   TIME STEP   30



 STREAM LISTING     PERIOD     18   STEP       30

 LAYER ROW COL. STREAM  RCH.  FLOW INTO     FLOW TO   FLOW OUT OF   OVRLND.     DIRECT     STREAM       STREAM     STREAM     STREAM   STREAMBED  STREAMBED
                SEG.NO.  NO.  STRM. RCH.    AQUIFER    STRM. RCH.    RUNOFF     PRECIP       ET          HEAD       DEPTH      WIDTH   CONDCTNC.   GRADIENT

   1    1    1     1     1    2.3625E+01  2.3872E-01   2.3387E+01  0.000E+00  0.000E+00  0.000E+00  1.09421E+03  1.157E+00  1.276E+01  5.742E-02  1.386E+00
   1    2    2     1     2    2.3387E+01  3.6909E-01   2.3018E+01  0.000E+00  0.000E+00  0.000E+00  1.08921E+03  1.153E+00  1.270E+01  8.888E-02  1.384E+00
   1    3    3     1     3    2.3018E+01  3.1418E-01   2.2703E+01  0.000E+00  0.000E+00  0.000E+00  1.08357E+03  1.147E+00  1.263E+01  7.575E-02  1.382E+00
   1    3    4     1     4    2.2703E+01  2.8882E-01   2.2415E+01  0.000E+00  0.000E+00  0.000E+00  1.07855E+03  1.143E+00  1.256E+01  6.972E-02  1.381E+00
   1    4    5     2     1    2.0415E+01  3.1702E-01   2.0098E+01  0.000E+00  0.000E+00  0.000E+00  1.07300E+03  1.064E+00  1.200E+01  7.800E-02  1.355E+00
   1    5    6     2     2    2.0098E+01  2.4333E-01   1.9854E+01  0.000E+00  0.000E+00  0.000E+00  1.06756E+03  1.055E+00  1.200E+01  6.000E-02  1.352E+00
   1    6    6     2     3    1.9854E+01  2.4286E-01   1.9611E+01  0.000E+00  0.000E+00  0.000E+00  1.06284E+03  1.048E+00  1.200E+01  6.000E-02  1.349E+00
   1    7    6     2     4    1.9611E+01  2.4240E-01   1.9369E+01  0.000E+00  0.000E+00  0.000E+00  1.05812E+03  1.040E+00  1.200E+01  6.000E-02  1.347E+00
   1    8    6     2     5    1.9369E+01  2.4193E-01   1.9127E+01  0.000E+00  0.000E+00  0.000E+00  1.05339E+03  1.032E+00  1.200E+01  6.000E-02  1.344E+00
   1    3    5     3     1    2.0000E+00  2.8252E-01   1.7175E+00  0.000E+00  0.000E+00  0.000E+00  1.07555E+03  1.909E+00  9.636E+00  7.227E-02  1.955E+00
   1    3    6     3     2    1.7175E+00  2.4905E-01   1.4684E+00  0.000E+00  0.000E+00  0.000E+00  1.07264E+03  1.727E+00  8.909E+00  6.682E-02  1.864E+00
   1    3    7     3     3    1.4684E+00  1.9718E-01   1.2712E+00  0.000E+00  0.000E+00  0.000E+00  1.06987E+03  1.555E+00  8.218E+00  5.547E-02  1.777E+00
   1    4    8     3     4    1.2712E+00  2.2567E-01   1.0456E+00  0.000E+00  0.000E+00  0.000E+00  1.06682E+03  1.364E+00  7.455E+00  6.709E-02  1.682E+00
   1    5    8     3     5    1.0456E+00  1.5790E-01   8.8768E-01  0.000E+00  0.000E+00  0.000E+00  1.06362E+03  1.164E+00  6.655E+00  4.991E-02  1.582E+00
   1    6    8     3     6    8.8768E-01  5.5980E-02   8.3170E-01  0.000E+00  0.000E+00  0.000E+00  1.06158E+03  1.036E+00  6.145E+00  1.844E-02  1.518E+00
   1    5   10     4     1    1.0000E+01  9.0919E-02   9.9091E+00  0.000E+00  0.000E+00  0.000E+00  1.07836E+03  6.368E-01  1.000E+01  2.500E-02  1.212E+00
   1    5    9     4     2    9.9091E+00  1.8158E-01   9.7275E+00  0.000E+00  0.000E+00  0.000E+00  1.07154E+03  6.315E-01  1.000E+01  5.000E-02  1.211E+00
   1    6    8     4     3    9.7275E+00  1.2689E-01   9.6006E+00  0.000E+00  0.000E+00  0.000E+00  1.06381E+03  6.256E-01  1.000E+01  3.500E-02  1.209E+00
   1    6    8     5     1    1.0432E+01  2.2686E-01   1.0205E+01  0.000E+00  0.000E+00  0.000E+00  1.05868E+03  6.790E-01  1.542E+01  6.166E-02  1.226E+00
   1    7    7     5     2    1.0205E+01  2.7894E-01   9.9265E+00  0.000E+00  0.000E+00  0.000E+00  1.05417E+03  6.732E-01  1.519E+01  7.594E-02  1.224E+00
   1    8    7     5     3    9.9265E+00  1.9221E-01   9.7343E+00  0.000E+00  0.000E+00  0.000E+00  1.04992E+03  6.676E-01  1.497E+01  5.241E-02  1.223E+00
   1    8    6     5     4    9.7343E+00  1.3577E-01   9.5985E+00  0.000E+00  0.000E+00  0.000E+00  1.04691E+03  6.637E-01  1.482E+01  3.706E-02  1.221E+00
   1    9    6     6     1    2.1282E+01  2.4629E-01   2.1036E+01  0.000E+00  0.000E+00  0.000E+00  1.04383E+03  1.105E+00  1.200E+01  6.000E-02  1.368E+00
   1   10    7     6     2    2.1036E+01  2.4582E-01   2.0790E+01  0.000E+00  0.000E+00  0.000E+00  1.03928E+03  1.097E+00  1.200E+01  6.000E-02  1.366E+00
   1   11    7     6     3    2.0790E+01  2.4536E-01   2.0545E+01  0.000E+00  0.000E+00  0.000E+00  1.03473E+03  1.089E+00  1.200E+01  6.000E-02  1.363E+00
   1   12    7     6     4    2.0545E+01  2.4489E-01   2.0300E+01  0.000E+00  0.000E+00  0.000E+00  1.03017E+03  1.082E+00  1.200E+01  6.000E-02  1.361E+00
   1   13    7     6     5    2.0300E+01  4.1664E-03   2.0296E+01  0.000E+00  0.000E+00  0.000E+00  1.02699E+03  1.078E+00  1.200E+01  2.400E-02  5.787E-02
   1   14    9     7     1    1.5000E+02  1.3713E+00   1.4863E+02  0.000E+00  0.000E+00  0.000E+00  1.03987E+03  2.288E+00  5.529E+01  5.593E-01  8.173E-01
   1   13    8     7     2    1.4863E+02  1.9271E+00   1.4670E+02  0.000E+00  0.000E+00  0.000E+00  1.03478E+03  2.279E+00  5.525E+01  6.148E-01  1.045E+00
   1   13    7     7     3    1.4670E+02  1.6058E+00   1.4510E+02  0.000E+00  0.000E+00  0.000E+00  1.02969E+03  2.269E+00  5.521E+01  5.584E-01  9.586E-01
   1   13    6     8     1    1.6539E+02  1.0210E+00   1.6437E+02  0.000E+00  0.000E+00  0.000E+00  1.02479E+03  2.919E+00  4.232E+01  4.312E-01  7.892E-01
   1   13    5     8     2    1.6437E+02  2.6384E-01   1.6411E+02  0.000E+00  0.000E+00  0.000E+00  1.01854E+03  2.914E+00  4.226E+01  4.306E-01  2.042E-01
   1   13    4     8     3    1.6411E+02 -2.1509E+00   1.6626E+02  0.000E+00  0.000E+00  0.000E+00  1.01230E+03  2.921E+00  4.235E+01  4.315E+00 -1.661E-01
   1   13    3     8     4    1.6626E+02 -3.5094E+00   1.6977E+02  0.000E+00  0.000E+00  0.000E+00  1.00606E+03  2.939E+00  4.262E+01  4.343E+00 -2.694E-01
   1   13    2     8     5    1.6977E+02 -2.5532E+00   1.7232E+02  0.000E+00  0.000E+00  0.000E+00  9.99834E+02  2.959E+00  4.291E+01  4.372E+00 -1.947E-01
   1   13    1     8     6    1.7232E+02 -1.9918E+00   1.7431E+02  0.000E+00  0.000E+00  0.000E+00  9.94849E+02  2.974E+00  4.312E+01  2.636E+00 -2.518E-01
   1    8    6     9     1    7.4435E+00  0.0000E+00   7.4435E+00  0.000E+00  0.000E+00  0.000E+00  1.08065E+03  1.898E+00  4.000E+00  0.000E+00  1.633E+00
   1    8    5     9     2    7.4435E+00  0.0000E+00   7.4435E+00  0.000E+00  0.000E+00  0.000E+00  1.08015E+03  1.898E+00  4.000E+00  0.000E+00  1.633E+00





UNSATURATED ZONE PACKAGE VOLUMETRIC BUDGET FOR  TIME STEP    30 STRESS PERIOD   18
  ------------------------------------------------------------------------------



     CUMULATIVE VOLUMES      L**3       RATES FOR THIS TIME STEP      L**3/T
     ------------------                 ------------------------

           IN:                                      IN:
           ---                                      ---
        INFILTRATION =   472591592.6506          INFILTRATION =           8.2911

          OUT:                                     OUT:
          ----                                     ----
              UZF ET =   470515591.8889                UZF ET =           8.3175
        UZF RECHARGE =       73224.0000          UZF RECHARGE =       0.0000E+00

            IN - OUT =     2002776.7618              IN - OUT =      -2.6367E-02

          STORAGE:                                 STORAGE:
          --------                                 --------
      STORAGE CHANGE =     2002778.5165        STORAGE CHANGE =      -2.6367E-02

 PERCENT DISCREPANCY IS DIFFERENCE BETWEEN IN-OUT MINUS CHANGE IN STORAGE
 DIVIDED BY THE AVERAGE OF IN AND OUT TIMES 100

 PERCENT DISCREPANCY =           0.00     PERCENT DISCREPANCY =           0.00






1
  VOLUMETRIC BUDGET FOR AGRICULTURAL FIELDS AT  END OF TIME STEP   30, STRESS PERIOD  18
  ------------------------------------------------------------------------------

     CUMULATIVE VOLUMES      L**3       RATES FOR THIS TIME STEP      L**3/T
     ------------------                 ------------------------

           IN:                                      IN:
           ---                                      ---
           AG WELLS      =   178258384.0000             AG WELLS      =           0.0000
      DIVERSION SEGMENTS =   256384448.0000        DIVERSION SEGMENTS =           7.4435
           GW IRRIGATION =           0.0000             GW IRRIGATION =           0.0000
           SW IRRIGATION =           0.0000             SW IRRIGATION =           0.0000
        SYSTEM LOSSES GW =           0.0000          SYSTEM LOSSES GW =           0.0000
        SYSTEM LOSSES SW =           0.0000          SYSTEM LOSSES SW =           0.0000

                TOTAL IN =   434642816.0000                  TOTAL IN =           7.4435

          OUT:                                     OUT:
          ----                                     ----
           AG WELLS      =           0.0000             AG WELLS      =           0.0000
      DIVERSION SEGMENTS =           0.0000        DIVERSION SEGMENTS =           0.0000
           GW IRRIGATION =   178258384.0000             GW IRRIGATION =           0.0000
           SW IRRIGATION =   256389200.0000             SW IRRIGATION =           7.4436
        SYSTEM LOSSES GW =           0.0000          SYSTEM LOSSES GW =           0.0000
        SYSTEM LOSSES SW =           0.0000          SYSTEM LOSSES SW =           0.0000

               TOTAL OUT =   434647584.0000                 TOTAL OUT =           7.4436

                IN - OUT =       -4768.0000                  IN - OUT =      -1.4877E-04

     PERCENT DISCREPANCY =          -0.00         PERCENT DISCREPANCY =          -0.00



1
  VOLUMETRIC BUDGET FOR ENTIRE MODEL AT END OF TIME STEP   30, STRESS PERIOD  18
  ------------------------------------------------------------------------------

     CUMULATIVE VOLUMES      L**3       RATES FOR THIS TIME STEP      L**3/T
     ------------------                 ------------------------

           IN:                                      IN:
           ---                                      ---
             STORAGE     =   279951808.0000               STORAGE     =           1.0012
       CONSTANT HEAD     =           0.0000         CONSTANT HEAD     =           0.0000
     HEAD DEP BOUNDS     =    12900837.0000       HEAD DEP BOUNDS     =           0.2882
      STREAM LEAKAGE     =   527006816.0000        STREAM LEAKAGE     =          12.0754
        UZF RECHARGE     =       73223.9531          UZF RECHARGE     =           0.0000
               GW ET     =           0.0000                 GW ET     =           0.0000
     SURFACE LEAKAGE     =           0.0000       SURFACE LEAKAGE     =           0.0000
           AG WELLS      =           0.0000             AG WELLS      =           0.0000

                TOTAL IN =   819932672.0000                  TOTAL IN =          13.3647

          OUT:                                     OUT:
          ----                                     ----
             STORAGE     =   168869792.0000               STORAGE     =           2.8703
       CONSTANT HEAD     =           0.0000         CONSTANT HEAD     =           0.0000
     HEAD DEP BOUNDS     =    12909818.0000       HEAD DEP BOUNDS     =           0.2890
      STREAM LEAKAGE     =   459902080.0000        STREAM LEAKAGE     =          10.2054
        UZF RECHARGE     =           0.0000          UZF RECHARGE     =           0.0000
               GW ET     =           0.0000                 GW ET     =           0.0000
     SURFACE LEAKAGE     =           0.0000       SURFACE LEAKAGE     =           0.0000
           AG WELLS      =   178258384.0000             AG WELLS      =           0.0000

               TOTAL OUT =   819940032.0000                 TOTAL OUT =          13.3647

                IN - OUT =       -7360.0000                  IN - OUT =       6.4850E-05

     PERCENT DISCREPANCY =          -0.00         PERCENT DISCREPANCY =           0.00






         TIME SUMMARY AT END OF TIME STEP   30 IN STRESS PERIOD   18
                    SECONDS     MINUTES      HOURS       DAYS        YEARS
                    -----------------------------------------------------------
   TIME STEP LENGTH  87667.      1461.1      24.352      1.0147     2.77799E-03
 STRESS PERIOD TIME 2.63000E+06  43833.      730.56      30.440     8.33397E-02
         TOTAL TIME 4.47965E+07 7.46608E+05  12443.      518.48      1.4195    
1
1
                            STRESS PERIOD NO.   19, LENGTH =   2630000.    
                            -----------------------------------------------

                              NUMBER OF TIME STEPS =    30

                               MULTIPLIER FOR DELT =     1.000

                            INITIAL TIME STEP SIZE =   87666.66    

 REUSING NON-PARAMETER GHB CELLS FROM LAST STRESS PERIOD

      2 GHB CELLS

 REUSING STREAM SEGMENT DATA FROM LAST STRESS PERIOD



            AREAL INFILTRATION RATE
 READING ON UNIT   19 WITH FORMAT: (FREE)              

            1           2           3           4           5           6           7           8           9          10
 ........................................................................................................................
   1   1.0000E-10  2.0000E-10   0.000       0.000       0.000       0.000       0.000       0.000       0.000       0.000    
   2   2.0000E-10  1.0000E-10  2.0000E-10   0.000       0.000      8.0000E-10  8.0000E-10  5.0000E-10   0.000       0.000    
   3    0.000      5.0000E-10  1.0000E-10  1.0000E-10  8.0000E-10  8.0000E-10  5.0000E-10  5.0000E-10   0.000       0.000    
   4   8.0000E-10  5.0000E-10  1.0000E-10  1.0000E-10  1.0000E-10  1.0000E-10  1.0000E-10  1.0000E-10  2.0000E-10   0.000    
   5   8.0000E-10  5.0000E-10  1.0000E-10  1.0000E-10  1.0000E-10  1.0000E-10  1.0000E-10  1.0000E-10  1.0000E-10  1.0000E-10
   6   8.0000E-10  5.0000E-10  5.0000E-10  2.0000E-10  2.0000E-10  1.0000E-10  1.0000E-10  1.0000E-10  1.0000E-10  5.0000E-10
   7   8.0000E-10  5.0000E-10  5.0000E-10  2.0000E-10  2.0000E-10  1.0000E-10  1.0000E-10  2.0000E-10  2.0000E-10   0.000    
   8    0.000      5.0000E-10  5.0000E-10  2.0000E-10  2.0000E-10  1.0000E-10  1.0000E-10  2.0000E-10  5.0000E-10   0.000    
   9    0.000      5.0000E-10  5.0000E-10  2.0000E-10  2.0000E-10  1.0000E-10  1.0000E-10  2.0000E-10  5.0000E-10   0.000    
  10    0.000      5.0000E-10  5.0000E-10  2.0000E-10  2.0000E-10  1.0000E-10  1.0000E-10  2.0000E-10  5.0000E-10  8.0000E-10
  11    0.000      1.0000E-10  1.0000E-10  1.0000E-10  1.0000E-10  1.0000E-10  1.0000E-10  2.0000E-10  5.0000E-10   0.000    
  12   1.0000E-10  1.0000E-10  1.0000E-10  1.0000E-10  1.0000E-10  1.0000E-10  1.0000E-10  1.0000E-10  2.0000E-10   0.000    
  13   1.0000E-10  1.0000E-10  2.0000E-10  2.0000E-10  2.0000E-10  2.0000E-10  2.0000E-10  1.0000E-10  1.0000E-10   0.000    
  14    0.000      2.0000E-10  5.0000E-10  5.0000E-10  5.0000E-10  5.0000E-10  5.0000E-10  2.0000E-10  1.0000E-10   0.000    
  15    0.000       0.000      8.0000E-10  8.0000E-10  8.0000E-10  8.0000E-10   0.000       0.000       0.000       0.000    

                  ET RATE =  1.500000E-07

 USING ET EXTINCTION DEPTH FROM PREVIOUS STRESS PERIOD. CURRENT PERIOD IS:      19

 USING EXTINCTION WATER CONTENT FROM PREVIOUS STRESS PERIOD. CURRENT PERIOD IS:      19

 USING AIR ENTRY PRESSURE FROM PREVIOUS STRESS PERIOD. CURRENT PERIOD IS:      19

 USING ROOT PRESSURE HEAD FROM PREVIOUS STRESS PERIOD. CURRENT PERIOD IS:      19

 USING ROOT ACTIVITY FROM PREVIOUS STRESS PERIOD. CURRENT PERIOD IS:      19

 PROCESSING AG STRESS PERIOD DATA

 READING AG STRESS PERIOD DATA

 READING IRRIGATION SEGMENT

 READING IRRIGATION WELL

 READING SUPPLEMENTAL WELL

 END PROCESSING AG STRESS PERIOD DATA OPTIONS
 
 SOLVING FOR HEAD 
                                                   Max.-Head-Change                         Max.-Flux-Residual
  Residual-Control   Outer-Iter.   Inner-Iter.     Column Row Layer    Maximum-Head-Change  Column Row Layer    Maximum-Flux-Residual          L2-NORM 
          0                 1           2             4   13     1      -0.4937632176E-02       4   13    1        -0.2817672521E+00      0.7237336005E+00
          0                 2           2             4    7     1      -0.5614493428E-01       4    7    1        -0.3015268390E+01      0.7381246368E+01
          0                 3           2             4    7     1       0.3823211181E-02       4    7    1         0.2110656809E+00      0.5166906468E+00
          0                 4           2             4    7     1      -0.1521293911E-03       4    7    1        -0.8632613209E-02      0.2113477627E-01
          0                 5           1             4    7     1       0.1875820940E-05       4    7    1         0.1094017953E-03      0.2682280196E-03

    ------------------------------------------------
       NWT REQUIRED            5 OUTER ITERATIONS 
       AND A TOTAL OF          9 INNER ITERATIONS.
    ------------------------------------------------

 OUTPUT CONTROL FOR STRESS PERIOD   19   TIME STEP    1
    PRINT BUDGET
    SAVE BUDGET
 UBDSV1 SAVING "         STORAGE" ON UNIT 102 AT TIME STEP  1, STRESS PERIOD  19
 UBDSV2 SAVING "   CONSTANT HEAD" ON UNIT 102 AT TIME STEP  1, STRESS PERIOD  19
 UBDSV1 SAVING "FLOW RIGHT FACE " ON UNIT 102 AT TIME STEP  1, STRESS PERIOD  19
 UBDSV1 SAVING "FLOW FRONT FACE " ON UNIT 102 AT TIME STEP  1, STRESS PERIOD  19

  HEAD DEP BOUNDS   PERIOD   19   STEP     1
 BOUNDARY      1   LAYER   1   ROW    13   COL     1   RATE   -0.288855    
 BOUNDARY      2   LAYER   1   ROW    14   COL     9   RATE    0.288173    



 STREAM LISTING     PERIOD     19   STEP        1

 LAYER ROW COL. STREAM  RCH.  FLOW INTO     FLOW TO   FLOW OUT OF   OVRLND.     DIRECT     STREAM       STREAM     STREAM     STREAM   STREAMBED  STREAMBED
                SEG.NO.  NO.  STRM. RCH.    AQUIFER    STRM. RCH.    RUNOFF     PRECIP       ET          HEAD       DEPTH      WIDTH   CONDCTNC.   GRADIENT

   1    1    1     1     1    2.1826E+01  2.3002E-01   2.1596E+01  0.000E+00  0.000E+00  0.000E+00  1.09418E+03  1.129E+00  1.238E+01  5.571E-02  1.376E+00
   1    2    2     1     2    2.1596E+01  3.5556E-01   2.1240E+01  0.000E+00  0.000E+00  0.000E+00  1.08918E+03  1.124E+00  1.232E+01  8.622E-02  1.375E+00
   1    3    3     1     3    2.1240E+01  3.0257E-01   2.0938E+01  0.000E+00  0.000E+00  0.000E+00  1.08354E+03  1.119E+00  1.224E+01  7.347E-02  1.373E+00
   1    3    4     1     4    2.0938E+01  2.7808E-01   2.0660E+01  0.000E+00  0.000E+00  0.000E+00  1.07852E+03  1.114E+00  1.218E+01  6.760E-02  1.371E+00
   1    4    5     2     1    1.8660E+01  3.1263E-01   1.8347E+01  0.000E+00  0.000E+00  0.000E+00  1.07294E+03  1.008E+00  1.200E+01  7.800E-02  1.336E+00
   1    5    6     2     2    1.8347E+01  2.3994E-01   1.8107E+01  0.000E+00  0.000E+00  0.000E+00  1.06751E+03  9.990E-01  1.200E+01  6.000E-02  1.333E+00
   1    6    6     2     3    1.8107E+01  2.3947E-01   1.7868E+01  0.000E+00  0.000E+00  0.000E+00  1.06278E+03  9.911E-01  1.200E+01  6.000E-02  1.330E+00
   1    7    6     2     4    1.7868E+01  2.3899E-01   1.7629E+01  0.000E+00  0.000E+00  0.000E+00  1.05806E+03  9.832E-01  1.200E+01  6.000E-02  1.328E+00
   1    8    6     2     5    1.7629E+01  2.3851E-01   1.7390E+01  0.000E+00  0.000E+00  0.000E+00  1.05333E+03  9.752E-01  1.200E+01  6.000E-02  1.325E+00
   1    3    5     3     1    2.0000E+00  2.8252E-01   1.7175E+00  0.000E+00  0.000E+00  0.000E+00  1.07555E+03  1.909E+00  9.636E+00  7.227E-02  1.955E+00
   1    3    6     3     2    1.7175E+00  2.4905E-01   1.4684E+00  0.000E+00  0.000E+00  0.000E+00  1.07264E+03  1.727E+00  8.909E+00  6.682E-02  1.864E+00
   1    3    7     3     3    1.4684E+00  1.9718E-01   1.2712E+00  0.000E+00  0.000E+00  0.000E+00  1.06987E+03  1.555E+00  8.218E+00  5.547E-02  1.777E+00
   1    4    8     3     4    1.2712E+00  2.2567E-01   1.0456E+00  0.000E+00  0.000E+00  0.000E+00  1.06682E+03  1.364E+00  7.455E+00  6.709E-02  1.682E+00
   1    5    8     3     5    1.0456E+00  1.5790E-01   8.8768E-01  0.000E+00  0.000E+00  0.000E+00  1.06362E+03  1.164E+00  6.655E+00  4.991E-02  1.582E+00
   1    6    8     3     6    8.8768E-01  5.5980E-02   8.3170E-01  0.000E+00  0.000E+00  0.000E+00  1.06158E+03  1.036E+00  6.145E+00  1.844E-02  1.518E+00
   1    5   10     4     1    1.0000E+01  9.0919E-02   9.9091E+00  0.000E+00  0.000E+00  0.000E+00  1.07836E+03  6.368E-01  1.000E+01  2.500E-02  1.212E+00
   1    5    9     4     2    9.9091E+00  1.8158E-01   9.7275E+00  0.000E+00  0.000E+00  0.000E+00  1.07154E+03  6.315E-01  1.000E+01  5.000E-02  1.211E+00
   1    6    8     4     3    9.7275E+00  1.2689E-01   9.6006E+00  0.000E+00  0.000E+00  0.000E+00  1.06381E+03  6.256E-01  1.000E+01  3.500E-02  1.209E+00
   1    6    8     5     1    1.0432E+01  2.2686E-01   1.0205E+01  0.000E+00  0.000E+00  0.000E+00  1.05868E+03  6.790E-01  1.542E+01  6.166E-02  1.226E+00
   1    7    7     5     2    1.0205E+01  2.7894E-01   9.9265E+00  0.000E+00  0.000E+00  0.000E+00  1.05417E+03  6.732E-01  1.519E+01  7.594E-02  1.224E+00
   1    8    7     5     3    9.9265E+00  1.9221E-01   9.7343E+00  0.000E+00  0.000E+00  0.000E+00  1.04992E+03  6.676E-01  1.497E+01  5.241E-02  1.223E+00
   1    8    6     5     4    9.7343E+00  1.3577E-01   9.5985E+00  0.000E+00  0.000E+00  0.000E+00  1.04691E+03  6.637E-01  1.482E+01  3.706E-02  1.221E+00
   1    9    6     6     1    9.5985E+00  2.2097E-01   9.3776E+00  0.000E+00  0.000E+00  0.000E+00  1.04341E+03  6.828E-01  1.200E+01  6.000E-02  1.228E+00
   1   10    7     6     2    9.3776E+00  2.2039E-01   9.1572E+00  0.000E+00  0.000E+00  0.000E+00  1.03885E+03  6.732E-01  1.200E+01  6.000E-02  1.224E+00
   1   11    7     6     3    9.1572E+00  2.1981E-01   8.9374E+00  0.000E+00  0.000E+00  0.000E+00  1.03430E+03  6.636E-01  1.200E+01  6.000E-02  1.221E+00
   1   12    7     6     4    8.9374E+00  2.1923E-01   8.7181E+00  0.000E+00  0.000E+00  0.000E+00  1.02974E+03  6.539E-01  1.200E+01  6.000E-02  1.218E+00
   1   13    7     6     5    8.7181E+00 -6.0555E-02   8.7787E+00  0.000E+00  0.000E+00  0.000E+00  1.02656E+03  6.503E-01  1.200E+01  2.400E-01 -8.410E-02
   1   14    9     7     1    1.5000E+02  1.3713E+00   1.4863E+02  0.000E+00  0.000E+00  0.000E+00  1.03987E+03  2.288E+00  5.529E+01  5.593E-01  8.173E-01
   1   13    8     7     2    1.4863E+02  1.9272E+00   1.4670E+02  0.000E+00  0.000E+00  0.000E+00  1.03478E+03  2.279E+00  5.525E+01  6.148E-01  1.045E+00
   1   13    7     7     3    1.4670E+02  1.6065E+00   1.4509E+02  0.000E+00  0.000E+00  0.000E+00  1.02969E+03  2.269E+00  5.521E+01  5.584E-01  9.590E-01
   1   13    6     8     1    1.5387E+02  9.6160E-01   1.5291E+02  0.000E+00  0.000E+00  0.000E+00  1.02472E+03  2.841E+00  4.119E+01  4.197E-01  7.637E-01
   1   13    5     8     2    1.5291E+02  2.2465E-01   1.5269E+02  0.000E+00  0.000E+00  0.000E+00  1.01846E+03  2.836E+00  4.113E+01  4.191E-01  1.787E-01
   1   13    4     8     3    1.5269E+02 -2.3974E+00   1.5508E+02  0.000E+00  0.000E+00  0.000E+00  1.01222E+03  2.844E+00  4.124E+01  4.202E+00 -1.902E-01
   1   13    3     8     4    1.5508E+02 -3.7183E+00   1.5880E+02  0.000E+00  0.000E+00  0.000E+00  1.00599E+03  2.865E+00  4.154E+01  4.233E+00 -2.928E-01
   1   13    2     8     5    1.5880E+02 -2.7794E+00   1.6158E+02  0.000E+00  0.000E+00  0.000E+00  9.99762E+02  2.887E+00  4.186E+01  4.266E+00 -2.172E-01
   1   13    1     8     6    1.6158E+02 -2.1182E+00   1.6370E+02  0.000E+00  0.000E+00  0.000E+00  9.94779E+02  2.904E+00  4.210E+01  2.574E+00 -2.743E-01
   1    8    6     9     1    1.7390E+01  0.0000E+00   1.7390E+01  0.000E+00  0.000E+00  0.000E+00  1.08191E+03  3.158E+00  4.000E+00  0.000E+00  2.053E+00
   1    8    5     9     2    1.7390E+01  0.0000E+00   1.7390E+01  0.000E+00  0.000E+00  0.000E+00  1.08141E+03  3.158E+00  4.000E+00  0.000E+00  2.053E+00



 UBDSV3 SAVING "           GW ET" ON UNIT  61 AT TIME STEP  1, STRESS PERIOD  19
 UBDSV3 SAVING "    UZF RECHARGE" ON UNIT  61 AT TIME STEP  1, STRESS PERIOD  19
 UBDSV3 SAVING " SURFACE LEAKAGE" ON UNIT  61 AT TIME STEP  1, STRESS PERIOD  19
 UBDSV3 SAVING "       HORT+DUNN" ON UNIT  61 AT TIME STEP  1, STRESS PERIOD  19
 UBDSV3 SAVING "  STORAGE CHANGE" ON UNIT  61 AT TIME STEP  1, STRESS PERIOD  19


UNSATURATED ZONE PACKAGE VOLUMETRIC BUDGET FOR  TIME STEP     1 STRESS PERIOD   19
  ------------------------------------------------------------------------------



     CUMULATIVE VOLUMES      L**3       RATES FOR THIS TIME STEP      L**3/T
     ------------------                 ------------------------

           IN:                                      IN:
           ---                                      ---
        INFILTRATION =   475767776.5840          INFILTRATION =          36.2302

          OUT:                                     OUT:
          ----                                     ----
              UZF ET =   472559759.3847                UZF ET =          23.3175
        UZF RECHARGE =       73224.0000          UZF RECHARGE =       0.0000E+00

            IN - OUT =     3134793.1993              IN - OUT =          12.9127

          STORAGE:                                 STORAGE:
          --------                                 --------
      STORAGE CHANGE =     3134794.8608        STORAGE CHANGE =          12.9127

 PERCENT DISCREPANCY IS DIFFERENCE BETWEEN IN-OUT MINUS CHANGE IN STORAGE
 DIVIDED BY THE AVERAGE OF IN AND OUT TIMES 100

 PERCENT DISCREPANCY =           0.00     PERCENT DISCREPANCY =           0.00






 

        AG WELLS          PERIOD   19   STEP   1
 AG WELL      1   LAYER   1   ROW     6   COL     4   RATE    -2.99872    
 AG WELL      2   LAYER   1   ROW     6   COL     5   RATE    -2.99872    
 AG WELL      3   LAYER   1   ROW     7   COL     4   RATE    -2.99872    
 AG WELL      4   LAYER   1   ROW     7   COL     5   RATE    -2.99872    
 AG WELL      5   LAYER   1   ROW     8   COL     4   RATE    -2.99872    
 AG WELL      6   LAYER   1   ROW     8   COL     5   RATE    -2.99872    
 
 

   DIVERSION SEGMENTS     PERIOD   19   STEP   1
 SEGMENT      9   RATE     17.3901    
 
 

        SW IRRIGATION     PERIOD   19   STEP   1
 SEGMENT      9   ROW     6   COL     4   RATE     2.89841    
 SEGMENT      9   ROW     6   COL     5   RATE     2.89841    
 SEGMENT      9   ROW     7   COL     4   RATE     2.89841    
 SEGMENT      9   ROW     7   COL     5   RATE     2.89841    
 SEGMENT      9   ROW     8   COL     4   RATE     2.89841    
 SEGMENT      9   ROW     8   COL     5   RATE     2.89841    
 
 

        GW IRRIGATION     PERIOD   19   STEP   1
 AG WELL      1   ROW     6   COL     4   RATE     2.99872    
 AG WELL      2   ROW     6   COL     5   RATE     2.99872    
 AG WELL      3   ROW     7   COL     4   RATE     2.99872    
 AG WELL      4   ROW     7   COL     5   RATE     2.99872    
 AG WELL      5   ROW     8   COL     4   RATE     2.99872    
 AG WELL      6   ROW     8   COL     5   RATE     2.99872    
 
1
  VOLUMETRIC BUDGET FOR AGRICULTURAL FIELDS AT  END OF TIME STEP    1, STRESS PERIOD  19
  ------------------------------------------------------------------------------

     CUMULATIVE VOLUMES      L**3       RATES FOR THIS TIME STEP      L**3/T
     ------------------                 ------------------------

           IN:                                      IN:
           ---                                      ---
           AG WELLS      =   179835712.0000             AG WELLS      =          17.9923
      DIVERSION SEGMENTS =   257908976.0000        DIVERSION SEGMENTS =          17.3901
           GW IRRIGATION =           0.0000             GW IRRIGATION =           0.0000
           SW IRRIGATION =           0.0000             SW IRRIGATION =           0.0000
        SYSTEM LOSSES GW =           0.0000          SYSTEM LOSSES GW =           0.0000
        SYSTEM LOSSES SW =           0.0000          SYSTEM LOSSES SW =           0.0000

                TOTAL IN =   437744704.0000                  TOTAL IN =          35.3824

          OUT:                                     OUT:
          ----                                     ----
           AG WELLS      =           0.0000             AG WELLS      =           0.0000
      DIVERSION SEGMENTS =           0.0000        DIVERSION SEGMENTS =           0.0000
           GW IRRIGATION =   179835712.0000             GW IRRIGATION =          17.9923
           SW IRRIGATION =   257913760.0000             SW IRRIGATION =          17.3904
        SYSTEM LOSSES GW =           0.0000          SYSTEM LOSSES GW =           0.0000
        SYSTEM LOSSES SW =           0.0000          SYSTEM LOSSES SW =           0.0000

               TOTAL OUT =   437749472.0000                 TOTAL OUT =          35.3827

                IN - OUT =       -4768.0000                  IN - OUT =      -3.4714E-04

     PERCENT DISCREPANCY =          -0.00         PERCENT DISCREPANCY =          -0.00



1
  VOLUMETRIC BUDGET FOR ENTIRE MODEL AT END OF TIME STEP    1, STRESS PERIOD  19
  ------------------------------------------------------------------------------

     CUMULATIVE VOLUMES      L**3       RATES FOR THIS TIME STEP      L**3/T
     ------------------                 ------------------------

           IN:                                      IN:
           ---                                      ---
             STORAGE     =   281602624.0000               STORAGE     =          18.8307
       CONSTANT HEAD     =           0.0000         CONSTANT HEAD     =           0.0000
     HEAD DEP BOUNDS     =    12926100.0000       HEAD DEP BOUNDS     =           0.2882
      STREAM LEAKAGE     =   528042048.0000        STREAM LEAKAGE     =          11.8089
        UZF RECHARGE     =       73223.9531          UZF RECHARGE     =           0.0000
               GW ET     =           0.0000                 GW ET     =           0.0000
     SURFACE LEAKAGE     =           0.0000       SURFACE LEAKAGE     =           0.0000
           AG WELLS      =           0.0000             AG WELLS      =           0.0000

                TOTAL IN =   822643968.0000                  TOTAL IN =          30.9278

          OUT:                                     OUT:
          ----                                     ----
             STORAGE     =   169007664.0000               STORAGE     =           1.5727
       CONSTANT HEAD     =           0.0000         CONSTANT HEAD     =           0.0000
     HEAD DEP BOUNDS     =    12935141.0000       HEAD DEP BOUNDS     =           0.2889
      STREAM LEAKAGE     =   460872896.0000        STREAM LEAKAGE     =          11.0739
        UZF RECHARGE     =           0.0000          UZF RECHARGE     =           0.0000
               GW ET     =           0.0000                 GW ET     =           0.0000
     SURFACE LEAKAGE     =           0.0000       SURFACE LEAKAGE     =           0.0000
           AG WELLS      =   179835712.0000             AG WELLS      =          17.9923

               TOTAL OUT =   822651392.0000                 TOTAL OUT =          30.9277

                IN - OUT =       -7424.0000                  IN - OUT =       1.5259E-05

     PERCENT DISCREPANCY =          -0.00         PERCENT DISCREPANCY =           0.00






         TIME SUMMARY AT END OF TIME STEP    1 IN STRESS PERIOD   19
                    SECONDS     MINUTES      HOURS       DAYS        YEARS
                    -----------------------------------------------------------
   TIME STEP LENGTH  87667.      1461.1      24.352      1.0147     2.77799E-03
 STRESS PERIOD TIME  87667.      1461.1      24.352      1.0147     2.77799E-03
         TOTAL TIME 4.48841E+07 7.48069E+05  12468.      519.49      1.4223    
1
 
 SOLVING FOR HEAD 
                                                   Max.-Head-Change                         Max.-Flux-Residual
  Residual-Control   Outer-Iter.   Inner-Iter.     Column Row Layer    Maximum-Head-Change  Column Row Layer    Maximum-Flux-Residual          L2-NORM 
          0                 1           2             5    6     1       0.4052505830E-02       5    6    1         0.2158120164E+00      0.6284892838E+00
          0                 2           2             7   13     1      -0.1452283751E-02       7   13    1        -0.8061223755E-01      0.1013013538E+00
          0                 3           2             4    7     1      -0.2152798291E-01       4    7    1        -0.1156158112E+01      0.2844839537E+01
          0                 4           2             4    7     1       0.2191702528E-01       4    7    1         0.1209947944E+01      0.2963753992E+01
          0                 5           2             4    7     1      -0.8321281906E-03       4    8    1        -0.4721936702E-01      0.1158503977E+00
          0                 6           2             4    7     1      -0.1723636893E-03       5    6    1        -0.9780633499E-02      0.2543902384E-01
          0                 7           2             4    7     1       0.1823009132E-03       5    6    1         0.1063196262E-01      0.2673721617E-01
          0                 8           2             4    7     1      -0.1750054656E-03       4    8    1        -0.1048922464E-01      0.2709027724E-01
          0                 9           2             4    7     1       0.1194203500E-03       5    7    1         0.7355287702E-02      0.1923026084E-01
          0                10           1             4   13     1      -0.6695181872E-04       4   13    1        -0.4162609055E-02      0.7660685664E-02

    ------------------------------------------------
       NWT REQUIRED           10 OUTER ITERATIONS 
       AND A TOTAL OF         19 INNER ITERATIONS.
    ------------------------------------------------

 NO OUTPUT CONTROL FOR STRESS PERIOD   19   TIME STEP    2
 
 SOLVING FOR HEAD 
                                                   Max.-Head-Change                         Max.-Flux-Residual
  Residual-Control   Outer-Iter.   Inner-Iter.     Column Row Layer    Maximum-Head-Change  Column Row Layer    Maximum-Flux-Residual          L2-NORM 
          0                 1           2             5    6     1       0.3973829890E-02       5    6    1         0.2114568678E+00      0.6215927106E+00
          0                 2           2             4    7     1      -0.4455251944E-01       5    6    1        -0.2395585901E+01      0.5893576634E+01
          0                 3           2             4    7     1       0.2182910945E-01       5    6    1         0.1205304850E+01      0.2953334949E+01
          0                 4           2             4    7     1       0.7766206852E-02       4    7    1         0.4287434688E+00      0.1050111057E+01
          0                 5           2             4    7     1      -0.3091011831E-03       4    7    1        -0.1753998099E-01      0.4296143287E-01
          0                 6           1             4    7     1       0.3814267377E-05       4    7    1         0.2224556742E-03      0.5450869778E-03

    ------------------------------------------------
       NWT REQUIRED            6 OUTER ITERATIONS 
       AND A TOTAL OF         11 INNER ITERATIONS.
    ------------------------------------------------

 NO OUTPUT CONTROL FOR STRESS PERIOD   19   TIME STEP    3
 
 SOLVING FOR HEAD 
                                                   Max.-Head-Change                         Max.-Flux-Residual
  Residual-Control   Outer-Iter.   Inner-Iter.     Column Row Layer    Maximum-Head-Change  Column Row Layer    Maximum-Flux-Residual          L2-NORM 
          0                 1           2             5    6     1       0.4324296351E-02       5    6    1         0.2306777873E+00      0.6597654755E+00
          0                 2           2             4    7     1      -0.1543548308E-01       5    6    1        -0.8332620567E+00      0.2049744337E+01
          0                 3           2             4    7     1      -0.3817806627E-01       4    7    1        -0.2050341431E+01      0.5044070564E+01
          0                 4           2             4    7     1       0.4020515591E-01       4    7    1         0.2219554405E+01      0.5436650405E+01
          0                 5           2             4    7     1      -0.1600233160E-02       4    6    1        -0.9091821595E-01      0.2225043434E+00
          0                 6           1             4    7     1       0.1974617396E-04       4    6    1         0.1153067043E-02      0.2825717226E-02

    ------------------------------------------------
       NWT REQUIRED            6 OUTER ITERATIONS 
       AND A TOTAL OF         11 INNER ITERATIONS.
    ------------------------------------------------

 NO OUTPUT CONTROL FOR STRESS PERIOD   19   TIME STEP    4
 
 SOLVING FOR HEAD 
                                                   Max.-Head-Change                         Max.-Flux-Residual
  Residual-Control   Outer-Iter.   Inner-Iter.     Column Row Layer    Maximum-Head-Change  Column Row Layer    Maximum-Flux-Residual          L2-NORM 
          0                 1           2             5    6     1       0.4648382706E-02       5    6    1         0.2484378193E+00      0.6929228157E+00
          0                 2           2             4    7     1      -0.1569007533E-01       5    6    1        -0.8481808864E+00      0.2085501563E+01
          0                 3           2             4    7     1      -0.3775023065E-01       4    6    1        -0.2027372275E+01      0.4987711258E+01
          0                 4           2             4    7     1       0.3993821949E-01       4    6    1         0.2204804557E+01      0.5400979355E+01
          0                 5           2             4    7     1      -0.1589582177E-02       4    8    1        -0.9020177786E-01      0.2209780592E+00
          0                 6           1             4    7     1       0.1961474630E-04       4    8    1         0.1143976038E-02      0.2806380819E-02

    ------------------------------------------------
       NWT REQUIRED            6 OUTER ITERATIONS 
       AND A TOTAL OF         11 INNER ITERATIONS.
    ------------------------------------------------

 NO OUTPUT CONTROL FOR STRESS PERIOD   19   TIME STEP    5
 
 SOLVING FOR HEAD 
                                                   Max.-Head-Change                         Max.-Flux-Residual
  Residual-Control   Outer-Iter.   Inner-Iter.     Column Row Layer    Maximum-Head-Change  Column Row Layer    Maximum-Flux-Residual          L2-NORM 
          0                 1           2             5    6     1       0.4958061911E-02       5    6    1         0.2653994647E+00      0.7263457138E+00
          0                 2           2             4    7     1      -0.1588025318E-01       5    6    1        -0.8595316942E+00      0.2112563186E+01
          0                 3           2             4    7     1      -0.3743675912E-01       4    7    1        -0.2010516398E+01      0.4946230836E+01
          0                 4           2             4    7     1       0.3974200080E-01       4    7    1         0.2193968906E+01      0.5374425731E+01
          0                 5           2             4    7     1      -0.1581772344E-02       4    8    1        -0.8975844308E-01      0.2198916039E+00
          0                 6           1             4    7     1       0.1951837669E-04       4    8    1         0.1138353510E-02      0.2792556888E-02

    ------------------------------------------------
       NWT REQUIRED            6 OUTER ITERATIONS 
       AND A TOTAL OF         11 INNER ITERATIONS.
    ------------------------------------------------

 NO OUTPUT CONTROL FOR STRESS PERIOD   19   TIME STEP    6
 
 SOLVING FOR HEAD 
                                                   Max.-Head-Change                         Max.-Flux-Residual
  Residual-Control   Outer-Iter.   Inner-Iter.     Column Row Layer    Maximum-Head-Change  Column Row Layer    Maximum-Flux-Residual          L2-NORM 
          0                 1           2             5    6     1       0.5253703583E-02       5    6    1         0.2815833592E+00      0.7596022566E+00
          0                 2           2             4    7     1      -0.1602220906E-01       5    6    1        -0.8682025068E+00      0.2133115631E+01
          0                 3           2             4    7     1      -0.3720834427E-01       4    7    1        -0.1998250213E+01      0.4916072991E+01
          0                 4           2             4    7     1       0.3959871111E-01       4    7    1         0.2186057745E+01      0.5355037918E+01
          0                 5           2             4    7     1      -0.1576069175E-02       4    8    1        -0.8943465386E-01      0.2190982994E+00
          0                 6           1             4    7     1       0.1944800182E-04       4    8    1         0.1134247130E-02      0.2782479567E-02

    ------------------------------------------------
       NWT REQUIRED            6 OUTER ITERATIONS 
       AND A TOTAL OF         11 INNER ITERATIONS.
    ------------------------------------------------

 NO OUTPUT CONTROL FOR STRESS PERIOD   19   TIME STEP    7
 
 SOLVING FOR HEAD 
                                                   Max.-Head-Change                         Max.-Flux-Residual
  Residual-Control   Outer-Iter.   Inner-Iter.     Column Row Layer    Maximum-Head-Change  Column Row Layer    Maximum-Flux-Residual          L2-NORM 
          0                 1           2             5    6     1       0.5535542103E-02       5    6    1         0.2970008046E+00      0.7923830123E+00
          0                 2           2             4    7     1      -0.1612870866E-01       5    6    1        -0.8748754377E+00      0.2148837905E+01
          0                 3           2             4    7     1      -0.3704232793E-01       4    7    1        -0.1989334943E+01      0.4894139252E+01
          0                 4           2             4    7     1       0.3949447181E-01       4    7    1         0.2180302355E+01      0.5340931183E+01
          0                 5           2             4    7     1      -0.1571920277E-02       4    8    1        -0.8919907472E-01      0.2185210421E+00
          0                 6           1             4    7     1       0.1939680676E-04       4    8    1         0.1131259419E-02      0.2775125751E-02

    ------------------------------------------------
       NWT REQUIRED            6 OUTER ITERATIONS 
       AND A TOTAL OF         11 INNER ITERATIONS.
    ------------------------------------------------

 NO OUTPUT CONTROL FOR STRESS PERIOD   19   TIME STEP    8
 
 SOLVING FOR HEAD 
                                                   Max.-Head-Change                         Max.-Flux-Residual
  Residual-Control   Outer-Iter.   Inner-Iter.     Column Row Layer    Maximum-Head-Change  Column Row Layer    Maximum-Flux-Residual          L2-NORM 
          0                 1           2             5    6     1       0.5804440128E-02       5    6    1         0.3117000693E+00      0.8244683633E+00
          0                 2           2             4    7     1      -0.1620925328E-01       5    6    1        -0.8800672579E+00      0.2160991794E+01
          0                 3           2             4    7     1      -0.3692188417E-01       4    7    1        -0.1982866973E+01      0.4878216523E+01
          0                 4           2             4    7     1       0.3943577252E-01       5    7    1         0.2176109847E+01      0.5330582736E+01
          0                 5           2             4    7     1      -0.1586031262E-02       4    7    1        -0.9005127753E-01      0.2185210838E+00
          0                 6           1             4    7     1       0.1957092658E-04       4    7    1         0.1142229741E-02      0.2776060751E-02

    ------------------------------------------------
       NWT REQUIRED            6 OUTER ITERATIONS 
       AND A TOTAL OF         11 INNER ITERATIONS.
    ------------------------------------------------

 NO OUTPUT CONTROL FOR STRESS PERIOD   19   TIME STEP    9
 
 SOLVING FOR HEAD 
                                                   Max.-Head-Change                         Max.-Flux-Residual
  Residual-Control   Outer-Iter.   Inner-Iter.     Column Row Layer    Maximum-Head-Change  Column Row Layer    Maximum-Flux-Residual          L2-NORM 
          0                 1           2             5    6     1       0.6061132993E-02       5    6    1         0.3257223678E+00      0.8557168842E+00
          0                 2           2             4    7     1      -0.1627087806E-01       5    6    1        -0.8841634991E+00      0.2170517891E+01
          0                 3           2             4    7     1      -0.3683458381E-01       4    7    1        -0.1978178817E+01      0.4866668500E+01
          0                 4           2             4    7     1       0.3937412019E-01       4    8    1         0.2173076095E+01      0.5322994353E+01
          0                 5           2             4    7     1      -0.1576842365E-02       4    7    1        -0.8950796789E-01      0.2180330356E+00
          0                 6           1             4    7     1       0.1945754143E-04       4    7    1         0.1135225932E-02      0.2771632186E-02

    ------------------------------------------------
       NWT REQUIRED            6 OUTER ITERATIONS 
       AND A TOTAL OF         11 INNER ITERATIONS.
    ------------------------------------------------

 NO OUTPUT CONTROL FOR STRESS PERIOD   19   TIME STEP   10
 
 SOLVING FOR HEAD 
                                                   Max.-Head-Change                         Max.-Flux-Residual
  Residual-Control   Outer-Iter.   Inner-Iter.     Column Row Layer    Maximum-Head-Change  Column Row Layer    Maximum-Flux-Residual          L2-NORM 
          0                 1           2             5    6     1       0.6305771109E-02       5    6    1         0.3390765550E+00      0.8860254873E+00
          0                 2           2             4    7     1      -0.1631882169E-01       5    6    1        -0.8874462020E+00      0.2178109819E+01
          0                 3           2             4    7     1      -0.3677130439E-01       4    7    1        -0.1974780561E+01      0.4858285074E+01
          0                 4           2             4    7     1       0.3932775927E-01       5    7    1         0.2170886513E+01      0.5317470314E+01
          0                 5           2             4    7     1      -0.1568387593E-02       4    7    1        -0.8900672368E-01      0.2176412825E+00
          0                 6           1             4    7     1       0.1935321455E-04       4    7    1         0.1128824463E-02      0.2767078580E-02

    ------------------------------------------------
       NWT REQUIRED            6 OUTER ITERATIONS 
       AND A TOTAL OF         11 INNER ITERATIONS.
    ------------------------------------------------

 NO OUTPUT CONTROL FOR STRESS PERIOD   19   TIME STEP   11
 
 SOLVING FOR HEAD 
                                                   Max.-Head-Change                         Max.-Flux-Residual
  Residual-Control   Outer-Iter.   Inner-Iter.     Column Row Layer    Maximum-Head-Change  Column Row Layer    Maximum-Flux-Residual          L2-NORM 
          0                 1           2             5    6     1       0.6539427249E-02       5    6    1         0.3518226883E+00      0.9153498680E+00
          0                 2           2             4    7     1      -0.1635683034E-01       5    6    1        -0.8901265314E+00      0.2184275608E+01
          0                 3           2             4    7     1      -0.3674959081E-01       4    7    1        -0.1972550627E+01      0.4852294635E+01
          0                 4           2             4    7     1       0.3931768957E-01       4    7    1         0.2169359222E+01      0.5314027361E+01
          0                 5           2             4    7     1      -0.1564868555E-02       4    7    1        -0.8874851836E-01      0.2173964536E+00
          0                 6           1             4    7     1       0.1930981702E-04       4    7    1         0.1125551419E-02      0.2765253415E-02

    ------------------------------------------------
       NWT REQUIRED            6 OUTER ITERATIONS 
       AND A TOTAL OF         11 INNER ITERATIONS.
    ------------------------------------------------

 NO OUTPUT CONTROL FOR STRESS PERIOD   19   TIME STEP   12
 
 SOLVING FOR HEAD 
                                                   Max.-Head-Change                         Max.-Flux-Residual
  Residual-Control   Outer-Iter.   Inner-Iter.     Column Row Layer    Maximum-Head-Change  Column Row Layer    Maximum-Flux-Residual          L2-NORM 
          0                 1           2             5    6     1       0.6762238018E-02       5    6    1         0.3639689167E+00      0.9436240443E+00
          0                 2           2             4    7     1      -0.1639626532E-01       5    6    1        -0.8923553868E+00      0.2189380025E+01
          0                 3           2             4    7     1      -0.3671210513E-01       4    7    1        -0.1970527085E+01      0.4847769402E+01
          0                 4           2             4    7     1       0.3929676159E-01       4    7    1         0.2168203323E+01      0.5311223030E+01
          0                 5           2             4    7     1      -0.1564035602E-02       4    7    1        -0.8870123015E-01      0.2172815855E+00
          0                 6           1             4    7     1       0.1929953890E-04       4    7    1         0.1124951689E-02      0.2763764484E-02

    ------------------------------------------------
       NWT REQUIRED            6 OUTER ITERATIONS 
       AND A TOTAL OF         11 INNER ITERATIONS.
    ------------------------------------------------

 NO OUTPUT CONTROL FOR STRESS PERIOD   19   TIME STEP   13
 
 SOLVING FOR HEAD 
                                                   Max.-Head-Change                         Max.-Flux-Residual
  Residual-Control   Outer-Iter.   Inner-Iter.     Column Row Layer    Maximum-Head-Change  Column Row Layer    Maximum-Flux-Residual          L2-NORM 
          0                 1           2             5    6     1       0.6975102876E-02       5    6    1         0.3755651499E+00      0.9708564170E+00
          0                 2           2             4    7     1      -0.1642137872E-01       5    6    1        -0.8942461204E+00      0.2193694389E+01
          0                 3           2             4    7     1      -0.3668787626E-01       4    7    1        -0.1969227030E+01      0.4844540744E+01
          0                 4           2             4    7     1       0.3928187014E-01       4    7    1         0.2167381315E+01      0.5309203315E+01
          0                 5           2             4    7     1      -0.1563442909E-02       4    7    1        -0.8866760160E-01      0.2171988157E+00
          0                 6           1             4    7     1       0.1929222493E-04       4    7    1         0.1124525182E-02      0.2762687672E-02

    ------------------------------------------------
       NWT REQUIRED            6 OUTER ITERATIONS 
       AND A TOTAL OF         11 INNER ITERATIONS.
    ------------------------------------------------

 NO OUTPUT CONTROL FOR STRESS PERIOD   19   TIME STEP   14
 
 SOLVING FOR HEAD 
                                                   Max.-Head-Change                         Max.-Flux-Residual
  Residual-Control   Outer-Iter.   Inner-Iter.     Column Row Layer    Maximum-Head-Change  Column Row Layer    Maximum-Flux-Residual          L2-NORM 
          0                 1           2             5    6     1       0.7178432756E-02       5    6    1         0.3866345819E+00      0.9970968549E+00
          0                 2           2             4    7     1      -0.1644282286E-01       5    6    1        -0.8958797298E+00      0.2197422969E+01
          0                 3           2             4    7     1      -0.3667018752E-01       4    7    1        -0.1968277906E+01      0.4842178055E+01
          0                 4           2             4    7     1       0.3927112750E-01       4    7    1         0.2166788201E+01      0.5307744753E+01
          0                 5           2             4    7     1      -0.1563015343E-02       4    7    1        -0.8864333714E-01      0.2171390038E+00
          0                 6           1             4    7     1       0.1928694921E-04       4    7    1         0.1124217457E-02      0.2761903797E-02

    ------------------------------------------------
       NWT REQUIRED            6 OUTER ITERATIONS 
       AND A TOTAL OF         11 INNER ITERATIONS.
    ------------------------------------------------

 NO OUTPUT CONTROL FOR STRESS PERIOD   19   TIME STEP   15
 
 SOLVING FOR HEAD 
                                                   Max.-Head-Change                         Max.-Flux-Residual
  Residual-Control   Outer-Iter.   Inner-Iter.     Column Row Layer    Maximum-Head-Change  Column Row Layer    Maximum-Flux-Residual          L2-NORM 
          0                 1           2             5    6     1       0.7372776535E-02       5    6    1         0.3972074540E+00      0.1022370047E+01
          0                 2           2             4    7     1      -0.1646162884E-01       5    6    1        -0.8973166980E+00      0.2200710461E+01
          0                 3           2             4    7     1      -0.3665721216E-01       4    7    1        -0.1967581672E+01      0.4840445739E+01
          0                 4           2             4    7     1       0.3926336892E-01       4    7    1         0.2166359716E+01      0.5306688788E+01
          0                 5           2             4    7     1      -0.1562706544E-02       4    7    1        -0.8862580773E-01      0.2170954703E+00
          0                 6           1             4    7     1       0.1928313888E-04       4    7    1         0.1123995154E-02      0.2761289356E-02

    ------------------------------------------------
       NWT REQUIRED            6 OUTER ITERATIONS 
       AND A TOTAL OF         11 INNER ITERATIONS.
    ------------------------------------------------

 NO OUTPUT CONTROL FOR STRESS PERIOD   19   TIME STEP   16
 
 SOLVING FOR HEAD 
                                                   Max.-Head-Change                         Max.-Flux-Residual
  Residual-Control   Outer-Iter.   Inner-Iter.     Column Row Layer    Maximum-Head-Change  Column Row Layer    Maximum-Flux-Residual          L2-NORM 
          0                 1           2             5    6     1       0.7558642661E-02       5    6    1         0.4073128539E+00      0.1046707129E+01
          0                 2           2             4    7     1      -0.1647854724E-01       5    6    1        -0.8986008227E+00      0.2203660573E+01
          0                 3           2             4    7     1      -0.3664762501E-01       4    7    1        -0.1967067204E+01      0.4839158353E+01
          0                 4           2             4    7     1       0.3925776629E-01       4    7    1         0.2166050173E+01      0.5305925727E+01
          0                 5           2             4    7     1      -0.1562483555E-02       4    7    1        -0.8861314424E-01      0.2170641206E+00
          0                 6           1             4    7     1       0.1928038698E-04       4    7    1         0.1123834524E-02      0.2760871948E-02

    ------------------------------------------------
       NWT REQUIRED            6 OUTER ITERATIONS 
       AND A TOTAL OF         11 INNER ITERATIONS.
    ------------------------------------------------

 NO OUTPUT CONTROL FOR STRESS PERIOD   19   TIME STEP   17
 
 SOLVING FOR HEAD 
                                                   Max.-Head-Change                         Max.-Flux-Residual
  Residual-Control   Outer-Iter.   Inner-Iter.     Column Row Layer    Maximum-Head-Change  Column Row Layer    Maximum-Flux-Residual          L2-NORM 
          0                 1           2             5    6     1       0.7736367389E-02       5    6    1         0.4169692998E+00      0.1070134601E+01
          0                 2           2             4    7     1      -0.1649410195E-01       5    6    1        -0.8997632810E+00      0.2206348572E+01
          0                 3           2             4    7     1      -0.3664049654E-01       4    7    1        -0.1966684617E+01      0.4838198480E+01
          0                 4           2             4    7     1       0.3925372155E-01       4    7    1         0.2165826574E+01      0.5305373585E+01
          0                 5           2             4    7     1      -0.1562322571E-02       4    7    1        -0.8860399675E-01      0.2170413843E+00
          0                 6           1             4    7     1       0.1927840072E-04       4    7    1         0.1123718532E-02      0.2760554929E-02

    ------------------------------------------------
       NWT REQUIRED            6 OUTER ITERATIONS 
       AND A TOTAL OF         11 INNER ITERATIONS.
    ------------------------------------------------

 NO OUTPUT CONTROL FOR STRESS PERIOD   19   TIME STEP   18
 
 SOLVING FOR HEAD 
                                                   Max.-Head-Change                         Max.-Flux-Residual
  Residual-Control   Outer-Iter.   Inner-Iter.     Column Row Layer    Maximum-Head-Change  Column Row Layer    Maximum-Flux-Residual          L2-NORM 
          0                 1           2             5    6     1       0.7906580932E-02       5    6    1         0.4262110559E+00      0.1092701502E+01
          0                 2           2             4    7     1      -0.1650867917E-01       5    6    1        -0.9008293147E+00      0.2208832375E+01
          0                 3           2             4    7     1      -0.3663512233E-01       4    7    1        -0.1966396111E+01      0.4837473254E+01
          0                 4           2             4    7     1       0.3925079242E-01       4    7    1         0.2165664516E+01      0.5304972571E+01
          0                 5           2             4    7     1      -0.1562205989E-02       4    7    1        -0.8859736693E-01      0.2170248543E+00
          0                 6           1             4    7     1       0.1927696176E-04       4    7    1         0.1123634439E-02      0.2760317791E-02

    ------------------------------------------------
       NWT REQUIRED            6 OUTER ITERATIONS 
       AND A TOTAL OF         11 INNER ITERATIONS.
    ------------------------------------------------

 NO OUTPUT CONTROL FOR STRESS PERIOD   19   TIME STEP   19
 
 SOLVING FOR HEAD 
                                                   Max.-Head-Change                         Max.-Flux-Residual
  Residual-Control   Outer-Iter.   Inner-Iter.     Column Row Layer    Maximum-Head-Change  Column Row Layer    Maximum-Flux-Residual          L2-NORM 
          0                 1           2             5    6     1       0.8069706256E-02       5    6    1         0.4350627684E+00      0.1114439142E+01
          0                 2           2             4    7     1      -0.1652254283E-01       5    6    1        -0.9018165878E+00      0.2211151346E+01
          0                 3           2             4    7     1      -0.3663102302E-01       4    7    1        -0.1966175960E+01      0.4836919239E+01
          0                 4           2             4    7     1       0.3924866968E-01       4    7    1         0.2165546941E+01      0.5304680865E+01
          0                 5           2             4    7     1      -0.1562121502E-02       4    7    1        -0.8859255690E-01      0.2170127893E+00
          0                 6           1             4    7     1       0.1927591968E-04       4    7    1         0.1123573443E-02      0.2760138261E-02

    ------------------------------------------------
       NWT REQUIRED            6 OUTER ITERATIONS 
       AND A TOTAL OF         11 INNER ITERATIONS.
    ------------------------------------------------

 NO OUTPUT CONTROL FOR STRESS PERIOD   19   TIME STEP   20
 
 SOLVING FOR HEAD 
                                                   Max.-Head-Change                         Max.-Flux-Residual
  Residual-Control   Outer-Iter.   Inner-Iter.     Column Row Layer    Maximum-Head-Change  Column Row Layer    Maximum-Flux-Residual          L2-NORM 
          0                 1           2             5    6     1       0.8226003096E-02       5    6    1         0.4435382935E+00      0.1135378890E+01
          0                 2           2             4    7     1      -0.1653586869E-01       5    6    1        -0.9027375721E+00      0.2213335487E+01
          0                 3           2             4    7     1      -0.3662784204E-01       4    7    1        -0.1966005033E+01      0.4836489147E+01
          0                 4           2             4    7     1       0.3924740557E-01       4    7    1         0.2165461542E+01      0.5304428768E+01
          0                 5           2             4    8     1      -0.1563405056E-02       4    8    1        -0.8976285081E-01      0.2174926130E+00
          0                 6           1             4    8     1       0.1929162318E-04       4    8    1         0.1137881182E-02      0.2766456406E-02

    ------------------------------------------------
       NWT REQUIRED            6 OUTER ITERATIONS 
       AND A TOTAL OF         11 INNER ITERATIONS.
    ------------------------------------------------

 NO OUTPUT CONTROL FOR STRESS PERIOD   19   TIME STEP   21
 
 SOLVING FOR HEAD 
                                                   Max.-Head-Change                         Max.-Flux-Residual
  Residual-Control   Outer-Iter.   Inner-Iter.     Column Row Layer    Maximum-Head-Change  Column Row Layer    Maximum-Flux-Residual          L2-NORM 
          0                 1           2             5    6     1       0.8375860373E-02       5    6    1         0.4516594558E+00      0.1155569452E+01
          0                 2           2             4    7     1      -0.1654881992E-01       5    6    1        -0.9036026162E+00      0.2215408887E+01
          0                 3           2             4    7     1      -0.3662531367E-01       4    7    1        -0.1965870020E+01      0.4836148425E+01
          0                 4           2             4    7     1       0.3924621376E-01       4    7    1         0.2165396875E+01      0.5304160197E+01
          0                 5           2             4    7     1      -0.1562227062E-02       4    8    1        -0.8947523347E-01      0.2173664374E+00
          0                 6           1             4    7     1       0.1927722253E-04       4    8    1         0.1134166683E-02      0.2764747761E-02

    ------------------------------------------------
       NWT REQUIRED            6 OUTER ITERATIONS 
       AND A TOTAL OF         11 INNER ITERATIONS.
    ------------------------------------------------

 NO OUTPUT CONTROL FOR STRESS PERIOD   19   TIME STEP   22
 
 SOLVING FOR HEAD 
                                                   Max.-Head-Change                         Max.-Flux-Residual
  Residual-Control   Outer-Iter.   Inner-Iter.     Column Row Layer    Maximum-Head-Change  Column Row Layer    Maximum-Flux-Residual          L2-NORM 
          0                 1           2             5    6     1       0.8519796013E-02       5    6    1         0.4594547558E+00      0.1175032614E+01
          0                 2           2             4    7     1      -0.1656146470E-01       5    6    1        -0.9044204708E+00      0.2217386789E+01
          0                 3           2             4    7     1      -0.3662326543E-01       4    7    1        -0.1965759711E+01      0.4835873738E+01
          0                 4           2             4    7     1       0.3924532524E-01       4    7    1         0.2165350939E+01      0.5303935505E+01
          0                 5           2             4    7     1      -0.1562734032E-02       4    8    1        -0.8922706816E-01      0.2173287511E+00
          0                 6           1             4    7     1       0.1928347828E-04       4    8    1         0.1130889160E-02      0.2764103238E-02

    ------------------------------------------------
       NWT REQUIRED            6 OUTER ITERATIONS 
       AND A TOTAL OF         11 INNER ITERATIONS.
    ------------------------------------------------

 NO OUTPUT CONTROL FOR STRESS PERIOD   19   TIME STEP   23
 
 SOLVING FOR HEAD 
                                                   Max.-Head-Change                         Max.-Flux-Residual
  Residual-Control   Outer-Iter.   Inner-Iter.     Column Row Layer    Maximum-Head-Change  Column Row Layer    Maximum-Flux-Residual          L2-NORM 
          0                 1           2             5    6     1       0.8657859745E-02       5    6    1         0.4669274215E+00      0.1193821549E+01
          0                 2           2             4    7     1      -0.1657336245E-01       5    6    1        -0.9051677361E+00      0.2219215517E+01
          0                 3           2             4    7     1      -0.3662244108E-01       4    7    1        -0.1965715045E+01      0.4835762321E+01
          0                 4           2             4    7     1       0.3924521410E-01       4    7    1         0.2165347806E+01      0.5303818332E+01
          0                 5           2             4    7     1      -0.1562668058E-02       4    8    1        -0.8895509667E-01      0.2172156664E+00
          0                 6           1             4    7     1       0.1928266404E-04       4    8    1         0.1127374428E-02      0.2762662781E-02

    ------------------------------------------------
       NWT REQUIRED            6 OUTER ITERATIONS 
       AND A TOTAL OF         11 INNER ITERATIONS.
    ------------------------------------------------

 NO OUTPUT CONTROL FOR STRESS PERIOD   19   TIME STEP   24
 
 SOLVING FOR HEAD 
                                                   Max.-Head-Change                         Max.-Flux-Residual
  Residual-Control   Outer-Iter.   Inner-Iter.     Column Row Layer    Maximum-Head-Change  Column Row Layer    Maximum-Flux-Residual          L2-NORM 
          0                 1           2             5    6     1       0.8790661622E-02       5    6    1         0.4741106676E+00      0.1211945009E+01
          0                 2           2             4    7     1      -0.1658520076E-01       5    6    1        -0.9058860595E+00      0.2220989206E+01
          0                 3           2             4    7     1      -0.3662162092E-01       4    7    1        -0.1965670557E+01      0.4835653520E+01
          0                 4           2             4    7     1       0.3924510475E-01       4    7    1         0.2165344686E+01      0.5303704793E+01
          0                 5           2             4    7     1      -0.1562603601E-02       4    8    1        -0.8868950505E-01      0.2171066506E+00
          0                 6           1             4    7     1       0.1928186839E-04       4    8    1         0.1123942139E-02      0.2761279677E-02

    ------------------------------------------------
       NWT REQUIRED            6 OUTER ITERATIONS 
       AND A TOTAL OF         11 INNER ITERATIONS.
    ------------------------------------------------

 NO OUTPUT CONTROL FOR STRESS PERIOD   19   TIME STEP   25
 
 SOLVING FOR HEAD 
                                                   Max.-Head-Change                         Max.-Flux-Residual
  Residual-Control   Outer-Iter.   Inner-Iter.     Column Row Layer    Maximum-Head-Change  Column Row Layer    Maximum-Flux-Residual          L2-NORM 
          0                 1           2             5    6     1       0.8918339324E-02       5    6    1         0.4810128394E+00      0.1229459515E+01
          0                 2           2             4    7     1      -0.1659699555E-01       5    6    1        -0.9065762754E+00      0.2222712532E+01
          0                 3           2             4    7     1      -0.3662113359E-01       4    7    1        -0.1965626189E+01      0.4835630177E+01
          0                 4           2             4    7     1       0.3924534031E-01       4    7    1         0.2165341577E+01      0.5304170926E+01
          0                 5           2             4    7     1      -0.1562594131E-02       4    7    1        -0.8861608199E-01      0.2170727222E+00
          0                 6           1             4    7     1       0.1928175201E-04       4    7    1         0.1123708502E-02      0.2760845221E-02

    ------------------------------------------------
       NWT REQUIRED            6 OUTER ITERATIONS 
       AND A TOTAL OF         11 INNER ITERATIONS.
    ------------------------------------------------

 NO OUTPUT CONTROL FOR STRESS PERIOD   19   TIME STEP   26
 
 SOLVING FOR HEAD 
                                                   Max.-Head-Change                         Max.-Flux-Residual
  Residual-Control   Outer-Iter.   Inner-Iter.     Column Row Layer    Maximum-Head-Change  Column Row Layer    Maximum-Flux-Residual          L2-NORM 
          0                 1           2             5    6     1       0.9041180893E-02       5    6    1         0.4876493222E+00      0.1246321513E+01
          0                 2           2             4    7     1      -0.1660872691E-01       5    6    1        -0.9072399224E+00      0.2224419826E+01
          0                 3           2             4    7     1      -0.3662038150E-01       4    7    1        -0.1965582105E+01      0.4835622875E+01
          0                 4           2             4    7     1       0.3924529733E-01       4    7    1         0.2165338486E+01      0.5304168345E+01
          0                 5           2             4    7     1      -0.1562592420E-02       4    7    1        -0.8861595494E-01      0.2170725012E+00
          0                 6           1             4    7     1       0.1928173072E-04       4    7    1         0.1123706854E-02      0.2760829274E-02

    ------------------------------------------------
       NWT REQUIRED            6 OUTER ITERATIONS 
       AND A TOTAL OF         11 INNER ITERATIONS.
    ------------------------------------------------

 NO OUTPUT CONTROL FOR STRESS PERIOD   19   TIME STEP   27
 
 SOLVING FOR HEAD 
                                                   Max.-Head-Change                         Max.-Flux-Residual
  Residual-Control   Outer-Iter.   Inner-Iter.     Column Row Layer    Maximum-Head-Change  Column Row Layer    Maximum-Flux-Residual          L2-NORM 
          0                 1           2             5    6     1       0.9159301166E-02       5    6    1         0.4940268036E+00      0.1262596812E+01
          0                 2           2             4    7     1      -0.1662045322E-01       5    6    1        -0.9078776692E+00      0.2225995109E+01
          0                 3           2             4    7     1      -0.3661946632E-01       4    7    1        -0.1965538291E+01      0.4835343301E+01
          0                 4           2             4    7     1       0.3924524323E-01       4    7    1         0.2165335412E+01      0.5304146627E+01
          0                 5           2             4    7     1      -0.1562590268E-02       4    7    1        -0.8861582861E-01      0.2170715024E+00
          0                 6           1             4    7     1       0.1928170451E-04       4    7    1         0.1123705226E-02      0.2760789327E-02

    ------------------------------------------------
       NWT REQUIRED            6 OUTER ITERATIONS 
       AND A TOTAL OF         11 INNER ITERATIONS.
    ------------------------------------------------

 NO OUTPUT CONTROL FOR STRESS PERIOD   19   TIME STEP   28
 
 SOLVING FOR HEAD 
                                                   Max.-Head-Change                         Max.-Flux-Residual
  Residual-Control   Outer-Iter.   Inner-Iter.     Column Row Layer    Maximum-Head-Change  Column Row Layer    Maximum-Flux-Residual          L2-NORM 
          0                 1           2             5    6     1       0.9272754969E-02       5    6    1         0.5001677377E+00      0.1265598747E+01
          0                 2           2             4    7     1      -0.1663198822E-01       5    6    1        -0.9084917607E+00      0.2227089705E+01
          0                 3           2             4    7     1      -0.3661866732E-01       4    7    1        -0.1965494781E+01      0.4832857923E+01
          0                 4           2             4    7     1       0.3730954021E-01       4    7    1         0.2058533533E+01      0.5042541257E+01
          0                 5           2             4    7     1      -0.1485581273E-02       4    7    1        -0.8424855845E-01      0.2063757333E+00
          0                 6           1             4    7     1       0.1833144630E-04       4    7    1         0.1068325216E-02      0.2625073089E-02

    ------------------------------------------------
       NWT REQUIRED            6 OUTER ITERATIONS 
       AND A TOTAL OF         11 INNER ITERATIONS.
    ------------------------------------------------

 NO OUTPUT CONTROL FOR STRESS PERIOD   19   TIME STEP   29
 
 SOLVING FOR HEAD 
                                                   Max.-Head-Change                         Max.-Flux-Residual
  Residual-Control   Outer-Iter.   Inner-Iter.     Column Row Layer    Maximum-Head-Change  Column Row Layer    Maximum-Flux-Residual          L2-NORM 
          0                 1           2             5    6     1       0.9436294265E-02       5    6    1         0.5090669672E+00      0.1270741365E+01
          0                 2           2             4    7     1      -0.1863442095E-01       5    6    1        -0.1016191119E+01      0.2491183750E+01
          0                 3           2             4    7     1      -0.3249838393E-01       4    7    1        -0.1744342664E+01      0.4287999366E+01
          0                 4           2             4    7     1       0.3266760051E-01       4    7    1         0.1802416870E+01      0.4415208286E+01
          0                 5           2             4    7     1      -0.1300189309E-02       4    7    1        -0.7373481481E-01      0.1806277770E+00
          0                 6           1             4    7     1       0.1604378936E-04       4    7    1         0.9350042703E-03      0.2298461875E-02

    ------------------------------------------------
       NWT REQUIRED            6 OUTER ITERATIONS 
       AND A TOTAL OF         11 INNER ITERATIONS.
    ------------------------------------------------

 NO OUTPUT CONTROL FOR STRESS PERIOD   19   TIME STEP   30



 STREAM LISTING     PERIOD     19   STEP       30

 LAYER ROW COL. STREAM  RCH.  FLOW INTO     FLOW TO   FLOW OUT OF   OVRLND.     DIRECT     STREAM       STREAM     STREAM     STREAM   STREAMBED  STREAMBED
                SEG.NO.  NO.  STRM. RCH.    AQUIFER    STRM. RCH.    RUNOFF     PRECIP       ET          HEAD       DEPTH      WIDTH   CONDCTNC.   GRADIENT

   1    1    1     1     1    2.0250E+01  2.2212E-01   2.0028E+01  0.000E+00  0.000E+00  0.000E+00  1.09415E+03  1.102E+00  1.203E+01  5.414E-02  1.367E+00
   1    2    2     1     2    2.0028E+01  3.4298E-01   1.9685E+01  0.000E+00  0.000E+00  0.000E+00  1.08916E+03  1.098E+00  1.196E+01  8.370E-02  1.366E+00
   1    3    3     1     3    1.9685E+01  2.9127E-01   1.9394E+01  0.000E+00  0.000E+00  0.000E+00  1.08351E+03  1.093E+00  1.186E+01  7.117E-02  1.364E+00
   1    3    4     1     4    1.9394E+01  2.6721E-01   1.9127E+01  0.000E+00  0.000E+00  0.000E+00  1.07850E+03  1.088E+00  1.178E+01  6.536E-02  1.363E+00
   1    4    5     2     1    1.7127E+01  3.0866E-01   1.6818E+01  0.000E+00  0.000E+00  0.000E+00  1.07289E+03  9.572E-01  1.200E+01  7.800E-02  1.319E+00
   1    5    6     2     2    1.6818E+01  2.3687E-01   1.6581E+01  0.000E+00  0.000E+00  0.000E+00  1.06746E+03  9.479E-01  1.200E+01  6.000E-02  1.316E+00
   1    6    6     2     3    1.6581E+01  2.3639E-01   1.6345E+01  0.000E+00  0.000E+00  0.000E+00  1.06273E+03  9.398E-01  1.200E+01  6.000E-02  1.313E+00
   1    7    6     2     4    1.6345E+01  2.3590E-01   1.6109E+01  0.000E+00  0.000E+00  0.000E+00  1.05801E+03  9.317E-01  1.200E+01  6.000E-02  1.311E+00
   1    8    6     2     5    1.6109E+01  2.3541E-01   1.5873E+01  0.000E+00  0.000E+00  0.000E+00  1.05328E+03  9.236E-01  1.200E+01  6.000E-02  1.308E+00
   1    3    5     3     1    2.0000E+00  2.8252E-01   1.7175E+00  0.000E+00  0.000E+00  0.000E+00  1.07555E+03  1.909E+00  9.636E+00  7.227E-02  1.955E+00
   1    3    6     3     2    1.7175E+00  2.4905E-01   1.4684E+00  0.000E+00  0.000E+00  0.000E+00  1.07264E+03  1.727E+00  8.909E+00  6.682E-02  1.864E+00
   1    3    7     3     3    1.4684E+00  1.9718E-01   1.2712E+00  0.000E+00  0.000E+00  0.000E+00  1.06987E+03  1.555E+00  8.218E+00  5.547E-02  1.777E+00
   1    4    8     3     4    1.2712E+00  2.2567E-01   1.0456E+00  0.000E+00  0.000E+00  0.000E+00  1.06682E+03  1.364E+00  7.455E+00  6.709E-02  1.682E+00
   1    5    8     3     5    1.0456E+00  1.5790E-01   8.8768E-01  0.000E+00  0.000E+00  0.000E+00  1.06362E+03  1.164E+00  6.655E+00  4.991E-02  1.582E+00
   1    6    8     3     6    8.8768E-01  5.5980E-02   8.3170E-01  0.000E+00  0.000E+00  0.000E+00  1.06158E+03  1.036E+00  6.145E+00  1.844E-02  1.518E+00
   1    5   10     4     1    1.0000E+01  9.0919E-02   9.9091E+00  0.000E+00  0.000E+00  0.000E+00  1.07836E+03  6.368E-01  1.000E+01  2.500E-02  1.212E+00
   1    5    9     4     2    9.9091E+00  1.8158E-01   9.7275E+00  0.000E+00  0.000E+00  0.000E+00  1.07154E+03  6.315E-01  1.000E+01  5.000E-02  1.211E+00
   1    6    8     4     3    9.7275E+00  1.2689E-01   9.6006E+00  0.000E+00  0.000E+00  0.000E+00  1.06381E+03  6.256E-01  1.000E+01  3.500E-02  1.209E+00
   1    6    8     5     1    1.0432E+01  2.2686E-01   1.0205E+01  0.000E+00  0.000E+00  0.000E+00  1.05868E+03  6.790E-01  1.542E+01  6.166E-02  1.226E+00
   1    7    7     5     2    1.0205E+01  2.7894E-01   9.9265E+00  0.000E+00  0.000E+00  0.000E+00  1.05417E+03  6.732E-01  1.519E+01  7.594E-02  1.224E+00
   1    8    7     5     3    9.9265E+00  1.9221E-01   9.7343E+00  0.000E+00  0.000E+00  0.000E+00  1.04992E+03  6.676E-01  1.497E+01  5.241E-02  1.223E+00
   1    8    6     5     4    9.7343E+00  1.3577E-01   9.5985E+00  0.000E+00  0.000E+00  0.000E+00  1.04691E+03  6.637E-01  1.482E+01  3.706E-02  1.221E+00
   1    9    6     6     1    9.5985E+00  2.2097E-01   9.3776E+00  0.000E+00  0.000E+00  0.000E+00  1.04341E+03  6.828E-01  1.200E+01  6.000E-02  1.228E+00
   1   10    7     6     2    9.3776E+00  2.2039E-01   9.1572E+00  0.000E+00  0.000E+00  0.000E+00  1.03885E+03  6.732E-01  1.200E+01  6.000E-02  1.224E+00
   1   11    7     6     3    9.1572E+00  2.1981E-01   8.9374E+00  0.000E+00  0.000E+00  0.000E+00  1.03430E+03  6.636E-01  1.200E+01  6.000E-02  1.221E+00
   1   12    7     6     4    8.9374E+00  2.1923E-01   8.7181E+00  0.000E+00  0.000E+00  0.000E+00  1.02974E+03  6.539E-01  1.200E+01  6.000E-02  1.218E+00
   1   13    7     6     5    8.7181E+00 -5.4170E-02   8.7723E+00  0.000E+00  0.000E+00  0.000E+00  1.02656E+03  6.502E-01  1.200E+01  2.400E-01 -7.524E-02
   1   14    9     7     1    1.5000E+02  1.3717E+00   1.4863E+02  0.000E+00  0.000E+00  0.000E+00  1.03987E+03  2.288E+00  5.529E+01  5.593E-01  8.175E-01
   1   13    8     7     2    1.4863E+02  1.9300E+00   1.4670E+02  0.000E+00  0.000E+00  0.000E+00  1.03478E+03  2.279E+00  5.525E+01  6.148E-01  1.046E+00
   1   13    7     7     3    1.4670E+02  1.6214E+00   1.4508E+02  0.000E+00  0.000E+00  0.000E+00  1.02969E+03  2.269E+00  5.521E+01  5.584E-01  9.679E-01
   1   13    6     8     1    1.5385E+02  9.7438E-01   1.5287E+02  0.000E+00  0.000E+00  0.000E+00  1.02472E+03  2.840E+00  4.119E+01  4.197E-01  7.739E-01
   1   13    5     8     2    1.5287E+02  2.3689E-01   1.5264E+02  0.000E+00  0.000E+00  0.000E+00  1.01846E+03  2.836E+00  4.112E+01  4.191E-01  1.884E-01
   1   13    4     8     3    1.5264E+02 -2.2106E+00   1.5485E+02  0.000E+00  0.000E+00  0.000E+00  1.01222E+03  2.843E+00  4.122E+01  4.201E+00 -1.754E-01
   1   13    3     8     4    1.5485E+02 -3.5399E+00   1.5839E+02  0.000E+00  0.000E+00  0.000E+00  1.00599E+03  2.863E+00  4.151E+01  4.230E+00 -2.789E-01
   1   13    2     8     5    1.5839E+02 -2.5789E+00   1.6097E+02  0.000E+00  0.000E+00  0.000E+00  9.99759E+02  2.884E+00  4.181E+01  4.261E+00 -2.017E-01
   1   13    1     8     6    1.6097E+02 -2.0111E+00   1.6298E+02  0.000E+00  0.000E+00  0.000E+00  9.94774E+02  2.899E+00  4.204E+01  2.570E+00 -2.608E-01
   1    8    6     9     1    1.5873E+01  0.0000E+00   1.5873E+01  0.000E+00  0.000E+00  0.000E+00  1.08174E+03  2.990E+00  4.000E+00  0.000E+00  1.997E+00
   1    8    5     9     2    1.5873E+01  0.0000E+00   1.5873E+01  0.000E+00  0.000E+00  0.000E+00  1.08124E+03  2.990E+00  4.000E+00  0.000E+00  1.997E+00





UNSATURATED ZONE PACKAGE VOLUMETRIC BUDGET FOR  TIME STEP    30 STRESS PERIOD   19
  ------------------------------------------------------------------------------



     CUMULATIVE VOLUMES      L**3       RATES FOR THIS TIME STEP      L**3/T
     ------------------                 ------------------------

           IN:                                      IN:
           ---                                      ---
        INFILTRATION =   533768171.4333          INFILTRATION =          23.3172

          OUT:                                     OUT:
          ----                                     ----
              UZF ET =   531822873.0778                UZF ET =          23.3175
        UZF RECHARGE =       73224.0000          UZF RECHARGE =       0.0000E+00

            IN - OUT =     1872074.3555              IN - OUT =      -2.9039E-04

          STORAGE:                                 STORAGE:
          --------                                 --------
      STORAGE CHANGE =     1872075.1213        STORAGE CHANGE =      -2.9203E-04

 PERCENT DISCREPANCY IS DIFFERENCE BETWEEN IN-OUT MINUS CHANGE IN STORAGE
 DIVIDED BY THE AVERAGE OF IN AND OUT TIMES 100

 PERCENT DISCREPANCY =           0.00     PERCENT DISCREPANCY =           0.00






1
  VOLUMETRIC BUDGET FOR AGRICULTURAL FIELDS AT  END OF TIME STEP   30, STRESS PERIOD  19
  ------------------------------------------------------------------------------

     CUMULATIVE VOLUMES      L**3       RATES FOR THIS TIME STEP      L**3/T
     ------------------                 ------------------------

           IN:                                      IN:
           ---                                      ---
           AG WELLS      =   192650464.0000             AG WELLS      =           6.5959
      DIVERSION SEGMENTS =   300955168.0000        DIVERSION SEGMENTS =          15.8735
           GW IRRIGATION =           0.0000             GW IRRIGATION =           0.0000
           SW IRRIGATION =           0.0000             SW IRRIGATION =           0.0000
        SYSTEM LOSSES GW =           0.0000          SYSTEM LOSSES GW =           0.0000
        SYSTEM LOSSES SW =           0.0000          SYSTEM LOSSES SW =           0.0000

                TOTAL IN =   493605632.0000                  TOTAL IN =          22.4694

          OUT:                                     OUT:
          ----                                     ----
           AG WELLS      =           0.0000             AG WELLS      =           0.0000
      DIVERSION SEGMENTS =           0.0000        DIVERSION SEGMENTS =           0.0000
           GW IRRIGATION =   192650464.0000             GW IRRIGATION =           6.5959
           SW IRRIGATION =   300960832.0000             SW IRRIGATION =          15.8738
        SYSTEM LOSSES GW =           0.0000          SYSTEM LOSSES GW =           0.0000
        SYSTEM LOSSES SW =           0.0000          SYSTEM LOSSES SW =           0.0000

               TOTAL OUT =   493611296.0000                 TOTAL OUT =          22.4697

                IN - OUT =       -5664.0000                  IN - OUT =      -3.1662E-04

     PERCENT DISCREPANCY =          -0.00         PERCENT DISCREPANCY =          -0.00



1
  VOLUMETRIC BUDGET FOR ENTIRE MODEL AT END OF TIME STEP   30, STRESS PERIOD  19
  ------------------------------------------------------------------------------

     CUMULATIVE VOLUMES      L**3       RATES FOR THIS TIME STEP      L**3/T
     ------------------                 ------------------------

           IN:                                      IN:
           ---                                      ---
             STORAGE     =   293781504.0000               STORAGE     =           5.7636
       CONSTANT HEAD     =           0.0000         CONSTANT HEAD     =           0.0000
     HEAD DEP BOUNDS     =    13658764.0000       HEAD DEP BOUNDS     =           0.2882
      STREAM LEAKAGE     =   558124032.0000        STREAM LEAKAGE     =          11.7931
        UZF RECHARGE     =       73223.9531          UZF RECHARGE     =           0.0000
               GW ET     =           0.0000                 GW ET     =           0.0000
     SURFACE LEAKAGE     =           0.0000       SURFACE LEAKAGE     =           0.0000
           AG WELLS      =           0.0000             AG WELLS      =           0.0000

                TOTAL IN =   865637504.0000                  TOTAL IN =          17.8449

          OUT:                                     OUT:
          ----                                     ----
             STORAGE     =   171494144.0000               STORAGE     =           0.5671
       CONSTANT HEAD     =           0.0000         CONSTANT HEAD     =           0.0000
     HEAD DEP BOUNDS     =    13666901.0000       HEAD DEP BOUNDS     =           0.2872
      STREAM LEAKAGE     =   487833312.0000        STREAM LEAKAGE     =          10.3947
        UZF RECHARGE     =           0.0000          UZF RECHARGE     =           0.0000
               GW ET     =           0.0000                 GW ET     =           0.0000
     SURFACE LEAKAGE     =           0.0000       SURFACE LEAKAGE     =           0.0000
           AG WELLS      =   192650464.0000             AG WELLS      =           6.5959

               TOTAL OUT =   865644800.0000                 TOTAL OUT =          17.8448

                IN - OUT =       -7296.0000                  IN - OUT =       8.0109E-05

     PERCENT DISCREPANCY =          -0.00         PERCENT DISCREPANCY =           0.00






         TIME SUMMARY AT END OF TIME STEP   30 IN STRESS PERIOD   19
                    SECONDS     MINUTES      HOURS       DAYS        YEARS
                    -----------------------------------------------------------
   TIME STEP LENGTH  87667.      1461.1      24.352      1.0147     2.77799E-03
 STRESS PERIOD TIME 2.63000E+06  43833.      730.56      30.440     8.33397E-02
         TOTAL TIME 4.74265E+07 7.90442E+05  13174.      548.92      1.5029    
1
1
                            STRESS PERIOD NO.   20, LENGTH =   2630000.    
                            -----------------------------------------------

                              NUMBER OF TIME STEPS =    30

                               MULTIPLIER FOR DELT =     1.000

                            INITIAL TIME STEP SIZE =   87666.66    

 REUSING NON-PARAMETER GHB CELLS FROM LAST STRESS PERIOD

      2 GHB CELLS

 REUSING STREAM SEGMENT DATA FROM LAST STRESS PERIOD



            AREAL INFILTRATION RATE
 READING ON UNIT   19 WITH FORMAT: (FREE)              

            1           2           3           4           5           6           7           8           9          10
 ........................................................................................................................
   1   1.0000E-10  2.0000E-10   0.000       0.000       0.000       0.000       0.000       0.000       0.000       0.000    
   2   2.0000E-10  1.0000E-10  2.0000E-10   0.000       0.000      8.0000E-10  8.0000E-10  5.0000E-10   0.000       0.000    
   3    0.000      5.0000E-10  1.0000E-10  1.0000E-10  8.0000E-10  8.0000E-10  5.0000E-10  5.0000E-10   0.000       0.000    
   4   8.0000E-10  5.0000E-10  1.0000E-10  1.0000E-10  1.0000E-10  1.0000E-10  1.0000E-10  1.0000E-10  2.0000E-10   0.000    
   5   8.0000E-10  5.0000E-10  1.0000E-10  1.0000E-10  1.0000E-10  1.0000E-10  1.0000E-10  1.0000E-10  1.0000E-10  1.0000E-10
   6   8.0000E-10  5.0000E-10  5.0000E-10  2.0000E-10  2.0000E-10  1.0000E-10  1.0000E-10  1.0000E-10  1.0000E-10  5.0000E-10
   7   8.0000E-10  5.0000E-10  5.0000E-10  2.0000E-10  2.0000E-10  1.0000E-10  1.0000E-10  2.0000E-10  2.0000E-10   0.000    
   8    0.000      5.0000E-10  5.0000E-10  2.0000E-10  2.0000E-10  1.0000E-10  1.0000E-10  2.0000E-10  5.0000E-10   0.000    
   9    0.000      5.0000E-10  5.0000E-10  2.0000E-10  2.0000E-10  1.0000E-10  1.0000E-10  2.0000E-10  5.0000E-10   0.000    
  10    0.000      5.0000E-10  5.0000E-10  2.0000E-10  2.0000E-10  1.0000E-10  1.0000E-10  2.0000E-10  5.0000E-10  8.0000E-10
  11    0.000      1.0000E-10  1.0000E-10  1.0000E-10  1.0000E-10  1.0000E-10  1.0000E-10  2.0000E-10  5.0000E-10   0.000    
  12   1.0000E-10  1.0000E-10  1.0000E-10  1.0000E-10  1.0000E-10  1.0000E-10  1.0000E-10  1.0000E-10  2.0000E-10   0.000    
  13   1.0000E-10  1.0000E-10  2.0000E-10  2.0000E-10  2.0000E-10  2.0000E-10  2.0000E-10  1.0000E-10  1.0000E-10   0.000    
  14    0.000      2.0000E-10  5.0000E-10  5.0000E-10  5.0000E-10  5.0000E-10  5.0000E-10  2.0000E-10  1.0000E-10   0.000    
  15    0.000       0.000      8.0000E-10  8.0000E-10  8.0000E-10  8.0000E-10   0.000       0.000       0.000       0.000    

                  ET RATE =  4.000000E-07

 USING ET EXTINCTION DEPTH FROM PREVIOUS STRESS PERIOD. CURRENT PERIOD IS:      20

 USING EXTINCTION WATER CONTENT FROM PREVIOUS STRESS PERIOD. CURRENT PERIOD IS:      20

 USING AIR ENTRY PRESSURE FROM PREVIOUS STRESS PERIOD. CURRENT PERIOD IS:      20

 USING ROOT PRESSURE HEAD FROM PREVIOUS STRESS PERIOD. CURRENT PERIOD IS:      20

 USING ROOT ACTIVITY FROM PREVIOUS STRESS PERIOD. CURRENT PERIOD IS:      20

 PROCESSING AG STRESS PERIOD DATA

 READING AG STRESS PERIOD DATA

 READING IRRIGATION SEGMENT

 READING IRRIGATION WELL

 READING SUPPLEMENTAL WELL

 END PROCESSING AG STRESS PERIOD DATA OPTIONS
 
 SOLVING FOR HEAD 
                                                   Max.-Head-Change                         Max.-Flux-Residual
  Residual-Control   Outer-Iter.   Inner-Iter.     Column Row Layer    Maximum-Head-Change  Column Row Layer    Maximum-Flux-Residual          L2-NORM 
          0                 1           2             5    6     1       0.9661613095E-02       5    6    1         0.5213339291E+00      0.1172922513E+01
          0                 2           2             4    7     1      -0.2746041572E+00       5    6    1        -0.1475570949E+02      0.3612773093E+02
          0                 3           2             4    7     1       0.1869907159E-01       5    6    1         0.1032703335E+01      0.2528546090E+01
          0                 4           2             4    7     1      -0.7440557305E-03       5    6    1        -0.4222069415E-01      0.1034143145E+00
          0                 5           1             4    7     1       0.9174526403E-05       4    7    1         0.5346262262E-03      0.1315597984E-02

    ------------------------------------------------
       NWT REQUIRED            5 OUTER ITERATIONS 
       AND A TOTAL OF          9 INNER ITERATIONS.
    ------------------------------------------------

 OUTPUT CONTROL FOR STRESS PERIOD   20   TIME STEP    1
    PRINT BUDGET
    SAVE BUDGET
    SAVE BUDGET
    SAVE HEAD FOR ALL LAYERS
 UBDSV1 SAVING "         STORAGE" ON UNIT 102 AT TIME STEP  1, STRESS PERIOD  20
 UBDSV2 SAVING "   CONSTANT HEAD" ON UNIT 102 AT TIME STEP  1, STRESS PERIOD  20
 UBDSV1 SAVING "FLOW RIGHT FACE " ON UNIT 102 AT TIME STEP  1, STRESS PERIOD  20
 UBDSV1 SAVING "FLOW FRONT FACE " ON UNIT 102 AT TIME STEP  1, STRESS PERIOD  20

  HEAD DEP BOUNDS   PERIOD   20   STEP     1
 BOUNDARY      1   LAYER   1   ROW    13   COL     1   RATE   -0.287121    
 BOUNDARY      2   LAYER   1   ROW    14   COL     9   RATE    0.288199    



 STREAM LISTING     PERIOD     20   STEP        1

 LAYER ROW COL. STREAM  RCH.  FLOW INTO     FLOW TO   FLOW OUT OF   OVRLND.     DIRECT     STREAM       STREAM     STREAM     STREAM   STREAMBED  STREAMBED
                SEG.NO.  NO.  STRM. RCH.    AQUIFER    STRM. RCH.    RUNOFF     PRECIP       ET          HEAD       DEPTH      WIDTH   CONDCTNC.   GRADIENT

   1    1    1     1     1    2.0250E+01  2.2212E-01   2.0028E+01  0.000E+00  0.000E+00  0.000E+00  1.09415E+03  1.102E+00  1.203E+01  5.414E-02  1.367E+00
   1    2    2     1     2    2.0028E+01  3.4298E-01   1.9685E+01  0.000E+00  0.000E+00  0.000E+00  1.08916E+03  1.098E+00  1.196E+01  8.370E-02  1.366E+00
   1    3    3     1     3    1.9685E+01  2.9127E-01   1.9394E+01  0.000E+00  0.000E+00  0.000E+00  1.08351E+03  1.093E+00  1.186E+01  7.117E-02  1.364E+00
   1    3    4     1     4    1.9394E+01  2.6721E-01   1.9127E+01  0.000E+00  0.000E+00  0.000E+00  1.07850E+03  1.088E+00  1.178E+01  6.536E-02  1.363E+00
   1    4    5     2     1    1.7127E+01  3.0866E-01   1.6818E+01  0.000E+00  0.000E+00  0.000E+00  1.07289E+03  9.572E-01  1.200E+01  7.800E-02  1.319E+00
   1    5    6     2     2    1.6818E+01  2.3687E-01   1.6581E+01  0.000E+00  0.000E+00  0.000E+00  1.06746E+03  9.479E-01  1.200E+01  6.000E-02  1.316E+00
   1    6    6     2     3    1.6581E+01  2.3639E-01   1.6345E+01  0.000E+00  0.000E+00  0.000E+00  1.06273E+03  9.398E-01  1.200E+01  6.000E-02  1.313E+00
   1    7    6     2     4    1.6345E+01  2.3590E-01   1.6109E+01  0.000E+00  0.000E+00  0.000E+00  1.05801E+03  9.317E-01  1.200E+01  6.000E-02  1.311E+00
   1    8    6     2     5    1.6109E+01  2.3541E-01   1.5873E+01  0.000E+00  0.000E+00  0.000E+00  1.05328E+03  9.236E-01  1.200E+01  6.000E-02  1.308E+00
   1    3    5     3     1    2.0000E+00  2.8252E-01   1.7175E+00  0.000E+00  0.000E+00  0.000E+00  1.07555E+03  1.909E+00  9.636E+00  7.227E-02  1.955E+00
   1    3    6     3     2    1.7175E+00  2.4905E-01   1.4684E+00  0.000E+00  0.000E+00  0.000E+00  1.07264E+03  1.727E+00  8.909E+00  6.682E-02  1.864E+00
   1    3    7     3     3    1.4684E+00  1.9718E-01   1.2712E+00  0.000E+00  0.000E+00  0.000E+00  1.06987E+03  1.555E+00  8.218E+00  5.547E-02  1.777E+00
   1    4    8     3     4    1.2712E+00  2.2567E-01   1.0456E+00  0.000E+00  0.000E+00  0.000E+00  1.06682E+03  1.364E+00  7.455E+00  6.709E-02  1.682E+00
   1    5    8     3     5    1.0456E+00  1.5790E-01   8.8768E-01  0.000E+00  0.000E+00  0.000E+00  1.06362E+03  1.164E+00  6.655E+00  4.991E-02  1.582E+00
   1    6    8     3     6    8.8768E-01  5.5980E-02   8.3170E-01  0.000E+00  0.000E+00  0.000E+00  1.06158E+03  1.036E+00  6.145E+00  1.844E-02  1.518E+00
   1    5   10     4     1    1.0000E+01  9.0919E-02   9.9091E+00  0.000E+00  0.000E+00  0.000E+00  1.07836E+03  6.368E-01  1.000E+01  2.500E-02  1.212E+00
   1    5    9     4     2    9.9091E+00  1.8158E-01   9.7275E+00  0.000E+00  0.000E+00  0.000E+00  1.07154E+03  6.315E-01  1.000E+01  5.000E-02  1.211E+00
   1    6    8     4     3    9.7275E+00  1.2689E-01   9.6006E+00  0.000E+00  0.000E+00  0.000E+00  1.06381E+03  6.256E-01  1.000E+01  3.500E-02  1.209E+00
   1    6    8     5     1    1.0432E+01  2.2686E-01   1.0205E+01  0.000E+00  0.000E+00  0.000E+00  1.05868E+03  6.790E-01  1.542E+01  6.166E-02  1.226E+00
   1    7    7     5     2    1.0205E+01  2.7894E-01   9.9265E+00  0.000E+00  0.000E+00  0.000E+00  1.05417E+03  6.732E-01  1.519E+01  7.594E-02  1.224E+00
   1    8    7     5     3    9.9265E+00  1.9221E-01   9.7343E+00  0.000E+00  0.000E+00  0.000E+00  1.04992E+03  6.676E-01  1.497E+01  5.241E-02  1.223E+00
   1    8    6     5     4    9.7343E+00  1.3577E-01   9.5985E+00  0.000E+00  0.000E+00  0.000E+00  1.04691E+03  6.637E-01  1.482E+01  3.706E-02  1.221E+00
   1    9    6     6     1    9.5985E+00  2.2097E-01   9.3776E+00  0.000E+00  0.000E+00  0.000E+00  1.04341E+03  6.828E-01  1.200E+01  6.000E-02  1.228E+00
   1   10    7     6     2    9.3776E+00  2.2039E-01   9.1572E+00  0.000E+00  0.000E+00  0.000E+00  1.03885E+03  6.732E-01  1.200E+01  6.000E-02  1.224E+00
   1   11    7     6     3    9.1572E+00  2.1981E-01   8.9374E+00  0.000E+00  0.000E+00  0.000E+00  1.03430E+03  6.636E-01  1.200E+01  6.000E-02  1.221E+00
   1   12    7     6     4    8.9374E+00  2.1923E-01   8.7181E+00  0.000E+00  0.000E+00  0.000E+00  1.02974E+03  6.539E-01  1.200E+01  6.000E-02  1.218E+00
   1   13    7     6     5    8.7181E+00 -5.4007E-02   8.7721E+00  0.000E+00  0.000E+00  0.000E+00  1.02656E+03  6.502E-01  1.200E+01  2.400E-01 -7.501E-02
   1   14    9     7     1    1.5000E+02  1.3717E+00   1.4863E+02  0.000E+00  0.000E+00  0.000E+00  1.03987E+03  2.288E+00  5.529E+01  5.593E-01  8.175E-01
   1   13    8     7     2    1.4863E+02  1.9301E+00   1.4670E+02  0.000E+00  0.000E+00  0.000E+00  1.03478E+03  2.279E+00  5.525E+01  6.148E-01  1.047E+00
   1   13    7     7     3    1.4670E+02  1.6218E+00   1.4508E+02  0.000E+00  0.000E+00  0.000E+00  1.02969E+03  2.269E+00  5.521E+01  5.584E-01  9.681E-01
   1   13    6     8     1    1.5385E+02  9.7473E-01   1.5287E+02  0.000E+00  0.000E+00  0.000E+00  1.02472E+03  2.840E+00  4.119E+01  4.197E-01  7.742E-01
   1   13    5     8     2    1.5287E+02  2.3722E-01   1.5264E+02  0.000E+00  0.000E+00  0.000E+00  1.01846E+03  2.836E+00  4.112E+01  4.191E-01  1.887E-01
   1   13    4     8     3    1.5264E+02 -2.2087E+00   1.5485E+02  0.000E+00  0.000E+00  0.000E+00  1.01222E+03  2.843E+00  4.122E+01  4.201E+00 -1.753E-01
   1   13    3     8     4    1.5485E+02 -3.5380E+00   1.5838E+02  0.000E+00  0.000E+00  0.000E+00  1.00599E+03  2.863E+00  4.151E+01  4.230E+00 -2.788E-01
   1   13    2     8     5    1.5838E+02 -2.5767E+00   1.6096E+02  0.000E+00  0.000E+00  0.000E+00  9.99759E+02  2.884E+00  4.181E+01  4.261E+00 -2.016E-01
   1   13    1     8     6    1.6096E+02 -2.0092E+00   1.6297E+02  0.000E+00  0.000E+00  0.000E+00  9.94774E+02  2.899E+00  4.204E+01  2.570E+00 -2.606E-01
   1    8    6     9     1    1.5873E+01  0.0000E+00   1.5873E+01  0.000E+00  0.000E+00  0.000E+00  1.08174E+03  2.990E+00  4.000E+00  0.000E+00  1.997E+00
   1    8    5     9     2    1.5873E+01  0.0000E+00   1.5873E+01  0.000E+00  0.000E+00  0.000E+00  1.08124E+03  2.990E+00  4.000E+00  0.000E+00  1.997E+00



 UBDSV3 SAVING "           GW ET" ON UNIT  61 AT TIME STEP  1, STRESS PERIOD  20
 UBDSV3 SAVING "    UZF RECHARGE" ON UNIT  61 AT TIME STEP  1, STRESS PERIOD  20
 UBDSV3 SAVING " SURFACE LEAKAGE" ON UNIT  61 AT TIME STEP  1, STRESS PERIOD  20
 UBDSV3 SAVING "       HORT+DUNN" ON UNIT  61 AT TIME STEP  1, STRESS PERIOD  20
 UBDSV3 SAVING "  STORAGE CHANGE" ON UNIT  61 AT TIME STEP  1, STRESS PERIOD  20


UNSATURATED ZONE PACKAGE VOLUMETRIC BUDGET FOR  TIME STEP     1 STRESS PERIOD   20
  ------------------------------------------------------------------------------



     CUMULATIVE VOLUMES      L**3       RATES FOR THIS TIME STEP      L**3/T
     ------------------                 ------------------------

           IN:                                      IN:
           ---                                      ---
        INFILTRATION =   542968154.1792          INFILTRATION =         104.9428

          OUT:                                     OUT:
          ----                                     ----
              UZF ET =   537154540.3236                UZF ET =          60.8175
        UZF RECHARGE =       73224.0000          UZF RECHARGE =       0.0000E+00

            IN - OUT =     5740389.8555              IN - OUT =          44.1253

          STORAGE:                                 STORAGE:
          --------                                 --------
      STORAGE CHANGE =     5740390.4222        STORAGE CHANGE =          44.1253

 PERCENT DISCREPANCY IS DIFFERENCE BETWEEN IN-OUT MINUS CHANGE IN STORAGE
 DIVIDED BY THE AVERAGE OF IN AND OUT TIMES 100

 PERCENT DISCREPANCY =           0.00     PERCENT DISCREPANCY =           0.00






 

        AG WELLS          PERIOD   20   STEP   1
 AG WELL      1   LAYER   1   ROW     6   COL     4   RATE    -14.7036    
 AG WELL      2   LAYER   1   ROW     6   COL     5   RATE    -14.7036    
 AG WELL      3   LAYER   1   ROW     7   COL     4   RATE    -14.7036    
 AG WELL      4   LAYER   1   ROW     7   COL     5   RATE    -14.7036    
 AG WELL      5   LAYER   1   ROW     8   COL     4   RATE    -14.7036    
 AG WELL      6   LAYER   1   ROW     8   COL     5   RATE    -14.7036    
 
 

   DIVERSION SEGMENTS     PERIOD   20   STEP   1
 SEGMENT      9   RATE     15.8735    
 
 

        SW IRRIGATION     PERIOD   20   STEP   1
 SEGMENT      9   ROW     6   COL     4   RATE     2.64564    
 SEGMENT      9   ROW     6   COL     5   RATE     2.64564    
 SEGMENT      9   ROW     7   COL     4   RATE     2.64564    
 SEGMENT      9   ROW     7   COL     5   RATE     2.64564    
 SEGMENT      9   ROW     8   COL     4   RATE     2.64564    
 SEGMENT      9   ROW     8   COL     5   RATE     2.64564    
 
 

        GW IRRIGATION     PERIOD   20   STEP   1
 AG WELL      1   ROW     6   COL     4   RATE     14.7036    
 AG WELL      2   ROW     6   COL     5   RATE     14.7036    
 AG WELL      3   ROW     7   COL     4   RATE     14.7036    
 AG WELL      4   ROW     7   COL     5   RATE     14.7036    
 AG WELL      5   ROW     8   COL     4   RATE     14.7036    
 AG WELL      6   ROW     8   COL     5   RATE     14.7036    
 
1
  VOLUMETRIC BUDGET FOR AGRICULTURAL FIELDS AT  END OF TIME STEP    1, STRESS PERIOD  20
  ------------------------------------------------------------------------------

     CUMULATIVE VOLUMES      L**3       RATES FOR THIS TIME STEP      L**3/T
     ------------------                 ------------------------

           IN:                                      IN:
           ---                                      ---
           AG WELLS      =   200384544.0000             AG WELLS      =          88.2215
      DIVERSION SEGMENTS =   302346752.0000        DIVERSION SEGMENTS =          15.8735
           GW IRRIGATION =           0.0000             GW IRRIGATION =           0.0000
           SW IRRIGATION =           0.0000             SW IRRIGATION =           0.0000
        SYSTEM LOSSES GW =           0.0000          SYSTEM LOSSES GW =           0.0000
        SYSTEM LOSSES SW =           0.0000          SYSTEM LOSSES SW =           0.0000

                TOTAL IN =   502731296.0000                  TOTAL IN =         104.0950

          OUT:                                     OUT:
          ----                                     ----
           AG WELLS      =           0.0000             AG WELLS      =           0.0000
      DIVERSION SEGMENTS =           0.0000        DIVERSION SEGMENTS =           0.0000
           GW IRRIGATION =   200384544.0000             GW IRRIGATION =          88.2215
           SW IRRIGATION =   302352448.0000             SW IRRIGATION =          15.8738
        SYSTEM LOSSES GW =           0.0000          SYSTEM LOSSES GW =           0.0000
        SYSTEM LOSSES SW =           0.0000          SYSTEM LOSSES SW =           0.0000

               TOTAL OUT =   502736992.0000                 TOTAL OUT =         104.0953

                IN - OUT =       -5696.0000                  IN - OUT =      -3.1281E-04

     PERCENT DISCREPANCY =          -0.00         PERCENT DISCREPANCY =          -0.00




 HEAD WILL BE SAVED ON UNIT   62 AT END OF TIME STEP    1, STRESS PERIOD   20
1
  VOLUMETRIC BUDGET FOR ENTIRE MODEL AT END OF TIME STEP    1, STRESS PERIOD  20
  ------------------------------------------------------------------------------

     CUMULATIVE VOLUMES      L**3       RATES FOR THIS TIME STEP      L**3/T
     ------------------                 ------------------------

           IN:                                      IN:
           ---                                      ---
             STORAGE     =   301438688.0000               STORAGE     =          87.3442
       CONSTANT HEAD     =           0.0000         CONSTANT HEAD     =           0.0000
     HEAD DEP BOUNDS     =    13684029.0000       HEAD DEP BOUNDS     =           0.2882
      STREAM LEAKAGE     =   559158016.0000        STREAM LEAKAGE     =          11.7943
        UZF RECHARGE     =       73223.9531          UZF RECHARGE     =           0.0000
               GW ET     =           0.0000                 GW ET     =           0.0000
     SURFACE LEAKAGE     =           0.0000       SURFACE LEAKAGE     =           0.0000
           AG WELLS      =           0.0000             AG WELLS      =           0.0000

                TOTAL IN =   874353920.0000                  TOTAL IN =          99.4267

          OUT:                                     OUT:
          ----                                     ----
             STORAGE     =   171540720.0000               STORAGE     =           0.5313
       CONSTANT HEAD     =           0.0000         CONSTANT HEAD     =           0.0000
     HEAD DEP BOUNDS     =    13692072.0000       HEAD DEP BOUNDS     =           0.2871
      STREAM LEAKAGE     =   488743872.0000        STREAM LEAKAGE     =          10.3867
        UZF RECHARGE     =           0.0000          UZF RECHARGE     =           0.0000
               GW ET     =           0.0000                 GW ET     =           0.0000
     SURFACE LEAKAGE     =           0.0000       SURFACE LEAKAGE     =           0.0000
           AG WELLS      =   200384544.0000             AG WELLS      =          88.2215

               TOTAL OUT =   874361216.0000                 TOTAL OUT =          99.4266

                IN - OUT =       -7296.0000                  IN - OUT =       4.5776E-05

     PERCENT DISCREPANCY =          -0.00         PERCENT DISCREPANCY =           0.00






         TIME SUMMARY AT END OF TIME STEP    1 IN STRESS PERIOD   20
                    SECONDS     MINUTES      HOURS       DAYS        YEARS
                    -----------------------------------------------------------
   TIME STEP LENGTH  87667.      1461.1      24.352      1.0147     2.77799E-03
 STRESS PERIOD TIME  87667.      1461.1      24.352      1.0147     2.77799E-03
         TOTAL TIME 4.75142E+07 7.91903E+05  13198.      549.93      1.5056    
1
 
 SOLVING FOR HEAD 
                                                   Max.-Head-Change                         Max.-Flux-Residual
  Residual-Control   Outer-Iter.   Inner-Iter.     Column Row Layer    Maximum-Head-Change  Column Row Layer    Maximum-Flux-Residual          L2-NORM 
          0                 1           2             5    8     1       0.1696352686E-01       5    8    1         0.9242560183E+00      0.2053801240E+01
          0                 2           2             4    7     1      -0.5076846922E-01       5    8    1        -0.2773807461E+01      0.6779561327E+01
          0                 3           2             4    7     1       0.3456176096E-02       5    8    1         0.1940969094E+00      0.4762456856E+00
          0                 4           2             4    7     1      -0.1890797988E-02       5    8    1        -0.1073704536E+00      0.2628831735E+00
          0                 5           2             4    7     1      -0.1527733456E-02       4    7    1        -0.8664124485E-01      0.2122259279E+00
          0                 6           2             4    7     1      -0.1636784380E-02       5    8    1        -0.9282573537E-01      0.2273746443E+00
          0                 7           2             4    7     1      -0.1696015906E-02       5    8    1        -0.9618396503E-01      0.2356005286E+00
          0                 8           2             4    7     1      -0.1673323171E-01       5    8    1        -0.9489510375E+00      0.2324444668E+01
          0                 9           2             4    7     1       0.2069774052E-03       4    7    1         0.1206298466E-01      0.2955158598E-01
          0                10           1             4    7     1       0.3036033683E-05       5    8    1         0.1772432561E-03      0.4346460863E-03

    ------------------------------------------------
       NWT REQUIRED           10 OUTER ITERATIONS 
       AND A TOTAL OF         19 INNER ITERATIONS.
    ------------------------------------------------

 NO OUTPUT CONTROL FOR STRESS PERIOD   20   TIME STEP    2
 
 SOLVING FOR HEAD 
                                                   Max.-Head-Change                         Max.-Flux-Residual
  Residual-Control   Outer-Iter.   Inner-Iter.     Column Row Layer    Maximum-Head-Change  Column Row Layer    Maximum-Flux-Residual          L2-NORM 
          0                 1           2             5    8     1       0.1829805206E-01       5    8    1         0.9973014827E+00      0.2212487372E+01
          0                 2           2             4    7     1      -0.1187204143E+00       5    8    1        -0.6425545884E+01      0.1569970660E+02
          0                 3           2             4    7     1       0.1071137898E-01       5    8    1         0.5946476410E+00      0.1454232599E+01
          0                 4           2             4    7     1      -0.1456449069E-01       5    8    1        -0.8261329084E+00      0.2023460841E+01
          0                 5           2             4    7     1       0.1795851194E-03       4    7    1         0.1046683861E-01      0.2564515771E-01
          0                 6           1             4    7     1       0.2641199753E-05       5    8    1         0.1542307457E-03      0.3781991917E-03

    ------------------------------------------------
       NWT REQUIRED            6 OUTER ITERATIONS 
       AND A TOTAL OF         11 INNER ITERATIONS.
    ------------------------------------------------

 NO OUTPUT CONTROL FOR STRESS PERIOD   20   TIME STEP    3
 
 SOLVING FOR HEAD 
                                                   Max.-Head-Change                         Max.-Flux-Residual
  Residual-Control   Outer-Iter.   Inner-Iter.     Column Row Layer    Maximum-Head-Change  Column Row Layer    Maximum-Flux-Residual          L2-NORM 
          0                 1           2             5    8     1       0.2112386013E-01       5    8    1         0.1152439950E+01      0.2539197256E+01
          0                 2           2             4    7     1      -0.1211350331E+00       5    8    1        -0.6566180236E+01      0.1603254122E+02
          0                 3           2             4    7     1       0.8434142446E-02       5    8    1         0.4697772986E+00      0.1147933184E+01
          0                 4           2             4    7     1      -0.1589748590E-01       5    8    1        -0.9017629754E+00      0.2208680589E+01
          0                 5           2             4    7     1       0.1960212677E-03       4    7    1         0.1142478453E-01      0.2799219382E-01
          0                 6           1             4    7     1       0.2882930110E-05       5    8    1         0.1683468606E-03      0.4128049923E-03

    ------------------------------------------------
       NWT REQUIRED            6 OUTER ITERATIONS 
       AND A TOTAL OF         11 INNER ITERATIONS.
    ------------------------------------------------

 NO OUTPUT CONTROL FOR STRESS PERIOD   20   TIME STEP    4
 
 SOLVING FOR HEAD 
                                                   Max.-Head-Change                         Max.-Flux-Residual
  Residual-Control   Outer-Iter.   Inner-Iter.     Column Row Layer    Maximum-Head-Change  Column Row Layer    Maximum-Flux-Residual          L2-NORM 
          0                 1           2             5    8     1       0.2397867307E-01       5    8    1         0.1309071774E+01      0.2875872171E+01
          0                 2           2             4    7     1      -0.1214528729E+00       5    8    1        -0.6594059425E+01      0.1608977301E+02
          0                 3           2             4    7     1       0.8281315607E-02       5    8    1         0.4621081954E+00      0.1128394146E+01
          0                 4           2             4    7     1      -0.1593115025E-01       5    8    1        -0.9037025926E+00      0.2213398709E+01
          0                 5           2             4    7     1       0.1964363572E-03       4    7    1         0.1144895630E-01      0.2805183429E-01
          0                 6           1             4    7     1       0.2889034981E-05       5    8    1         0.1687077472E-03      0.4140468735E-03

    ------------------------------------------------
       NWT REQUIRED            6 OUTER ITERATIONS 
       AND A TOTAL OF         11 INNER ITERATIONS.
    ------------------------------------------------

 NO OUTPUT CONTROL FOR STRESS PERIOD   20   TIME STEP    5
 
 SOLVING FOR HEAD 
                                                   Max.-Head-Change                         Max.-Flux-Residual
  Residual-Control   Outer-Iter.   Inner-Iter.     Column Row Layer    Maximum-Head-Change  Column Row Layer    Maximum-Flux-Residual          L2-NORM 
          0                 1           2             5    8     1       0.2669684237E-01       5    8    1         0.1458078656E+01      0.3202204098E+01
          0                 2           2             4    7     1      -0.1216301261E+00       5    8    1        -0.6613441844E+01      0.1612730124E+02
          0                 3           2             4    7     1       0.8281547532E-02       5    8    1         0.4645139600E+00      0.1130123548E+01
          0                 4           2             4    7     1      -0.1586954987E-01       5    8    1        -0.9003066203E+00      0.2204908357E+01
          0                 5           2             4    7     1       0.1941797527E-03       4    7    1         0.1131740855E-01      0.2773067309E-01
          0                 6           1             4    7     1       0.2855846440E-05       5    8    1         0.1668134755E-03      0.4089657899E-03

    ------------------------------------------------
       NWT REQUIRED            6 OUTER ITERATIONS 
       AND A TOTAL OF         11 INNER ITERATIONS.
    ------------------------------------------------

 NO OUTPUT CONTROL FOR STRESS PERIOD   20   TIME STEP    6
 
 SOLVING FOR HEAD 
                                                   Max.-Head-Change                         Max.-Flux-Residual
  Residual-Control   Outer-Iter.   Inner-Iter.     Column Row Layer    Maximum-Head-Change  Column Row Layer    Maximum-Flux-Residual          L2-NORM 
          0                 1           2             5    8     1       0.2927205503E-01       5    8    1         0.1601301532E+01      0.3517729880E+01
          0                 2           2             4    7     1      -0.1217996651E+00       5    8    1        -0.6631384421E+01      0.1616254683E+02
          0                 3           2             5    8     1       0.8312171639E-02       5    8    1         0.4710006434E+00      0.1134786942E+01
          0                 4           2             4    7     1      -0.1580116770E-01       5    8    1        -0.8966700198E+00      0.2195531470E+01
          0                 5           2             4    7     1       0.1933694117E-03       4    7    1         0.1127015043E-01      0.2763579725E-01
          0                 6           1             4    7     1       0.2843928837E-05       5    8    1         0.1676245311E-03      0.4204979285E-03

    ------------------------------------------------
       NWT REQUIRED            6 OUTER ITERATIONS 
       AND A TOTAL OF         11 INNER ITERATIONS.
    ------------------------------------------------

 NO OUTPUT CONTROL FOR STRESS PERIOD   20   TIME STEP    7
 
 SOLVING FOR HEAD 
                                                   Max.-Head-Change                         Max.-Flux-Residual
  Residual-Control   Outer-Iter.   Inner-Iter.     Column Row Layer    Maximum-Head-Change  Column Row Layer    Maximum-Flux-Residual          L2-NORM 
          0                 1           2             5    8     1       0.3180051795E-01       5    8    1         0.1739980027E+01      0.3822977577E+01
          0                 2           2             4    7     1      -0.1219715549E+00       5    8    1        -0.6649435858E+01      0.1619730595E+02
          0                 3           2             4    7     1       0.8304761425E-02       5    8    1         0.4653694122E+00      0.1134342749E+01
          0                 4           2             4    7     1      -0.1573298299E-01       5    8    1        -0.8925412580E+00      0.2185974507E+01
          0                 5           2             4    7     1       0.1925613978E-03       4    7    1         0.1122303690E-01      0.2750004992E-01
          0                 6           1             4    7     1       0.2832045062E-05       5    8    1         0.1654194214E-03      0.4055595611E-03

    ------------------------------------------------
       NWT REQUIRED            6 OUTER ITERATIONS 
       AND A TOTAL OF         11 INNER ITERATIONS.
    ------------------------------------------------

 NO OUTPUT CONTROL FOR STRESS PERIOD   20   TIME STEP    8
 
 SOLVING FOR HEAD 
                                                   Max.-Head-Change                         Max.-Flux-Residual
  Residual-Control   Outer-Iter.   Inner-Iter.     Column Row Layer    Maximum-Head-Change  Column Row Layer    Maximum-Flux-Residual          L2-NORM 
          0                 1           2             5    8     1       0.3419837018E-01       5    8    1         0.1871376515E+01      0.4116234820E+01
          0                 2           2             4    7     1      -0.1221455949E+00       5    8    1        -0.6666462534E+01      0.1623112421E+02
          0                 3           2             4    7     1       0.8316604930E-02       5    8    1         0.4665657964E+00      0.1136711955E+01
          0                 4           2             4    7     1      -0.1566498327E-01       5    8    1        -0.8887058827E+00      0.2176556017E+01
          0                 5           2             4    7     1       0.1917474843E-03       4    7    1         0.1117557800E-01      0.2738407240E-01
          0                 6           1             4    7     1       0.2803713310E-05       5    8    1         0.1637698822E-03      0.4015139034E-03

    ------------------------------------------------
       NWT REQUIRED            6 OUTER ITERATIONS 
       AND A TOTAL OF         11 INNER ITERATIONS.
    ------------------------------------------------

 NO OUTPUT CONTROL FOR STRESS PERIOD   20   TIME STEP    9
 
 SOLVING FOR HEAD 
                                                   Max.-Head-Change                         Max.-Flux-Residual
  Residual-Control   Outer-Iter.   Inner-Iter.     Column Row Layer    Maximum-Head-Change  Column Row Layer    Maximum-Flux-Residual          L2-NORM 
          0                 1           2             5    8     1       0.3647438395E-01       5    8    1         0.1995984961E+01      0.4397963425E+01
          0                 2           2             4    7     1      -0.1223214463E+00       5    8    1        -0.6682800386E+01      0.1626415535E+02
          0                 3           2             4    7     1       0.8328589002E-02       5    8    1         0.4677145747E+00      0.1139029096E+01
          0                 4           2             4    7     1      -0.1559718321E-01       5    8    1        -0.8848794943E+00      0.2167162173E+01
          0                 5           2             4    7     1       0.1909114904E-03       4    7    1         0.1112683198E-01      0.2726491624E-01
          0                 6           1             4    7     1       0.2807779714E-05       5    8    1         0.1640083728E-03      0.4020870675E-03

    ------------------------------------------------
       NWT REQUIRED            6 OUTER ITERATIONS 
       AND A TOTAL OF         11 INNER ITERATIONS.
    ------------------------------------------------

 NO OUTPUT CONTROL FOR STRESS PERIOD   20   TIME STEP   10
 
 SOLVING FOR HEAD 
                                                   Max.-Head-Change                         Max.-Flux-Residual
  Residual-Control   Outer-Iter.   Inner-Iter.     Column Row Layer    Maximum-Head-Change  Column Row Layer    Maximum-Flux-Residual          L2-NORM 
          0                 1           2             5    8     1       0.3863650234E-01       5    8    1         0.2114252352E+01      0.4668652433E+01
          0                 2           2             4    7     1      -0.1224988272E+00       5    8    1        -0.6698493163E+01      0.1629642870E+02
          0                 3           2             4    7     1       0.8340685801E-02       5    8    1         0.4688183575E+00      0.1141294359E+01
          0                 4           2             4    7     1      -0.1552959842E-01       5    8    1        -0.8810631555E+00      0.2157795318E+01
          0                 5           2             4    7     1       0.1900863316E-03       4    7    1         0.1107871410E-01      0.2714727499E-01
          0                 6           1             4    7     1       0.2795643904E-05       5    8    1         0.1633021307E-03      0.4003494099E-03

    ------------------------------------------------
       NWT REQUIRED            6 OUTER ITERATIONS 
       AND A TOTAL OF         11 INNER ITERATIONS.
    ------------------------------------------------

 NO OUTPUT CONTROL FOR STRESS PERIOD   20   TIME STEP   11
 
 SOLVING FOR HEAD 
                                                   Max.-Head-Change                         Max.-Flux-Residual
  Residual-Control   Outer-Iter.   Inner-Iter.     Column Row Layer    Maximum-Head-Change  Column Row Layer    Maximum-Flux-Residual          L2-NORM 
          0                 1           2             5    8     1       0.4069247652E-01       5    8    1         0.2226614151E+01      0.4928826768E+01
          0                 2           2             4    7     1      -0.1226774872E+00       5    8    1        -0.6713584888E+01      0.1632797680E+02
          0                 3           2             4    7     1       0.8352852354E-02       5    8    1         0.4698788189E+00      0.1143506252E+01
          0                 4           2             4    7     1      -0.1546218505E-01       5    8    1        -0.8772545530E+00      0.2148449559E+01
          0                 5           2             4    7     1       0.1892796480E-03       4    7    1         0.1103167306E-01      0.2703224301E-01
          0                 6           1             4    7     1       0.2783779508E-05       5    8    1         0.1626114231E-03      0.3986502993E-03

    ------------------------------------------------
       NWT REQUIRED            6 OUTER ITERATIONS 
       AND A TOTAL OF         11 INNER ITERATIONS.
    ------------------------------------------------

 NO OUTPUT CONTROL FOR STRESS PERIOD   20   TIME STEP   12
 
 SOLVING FOR HEAD 
                                                   Max.-Head-Change                         Max.-Flux-Residual
  Residual-Control   Outer-Iter.   Inner-Iter.     Column Row Layer    Maximum-Head-Change  Column Row Layer    Maximum-Flux-Residual          L2-NORM 
          0                 1           2             5    8     1       0.4264917352E-01       5    8    1         0.2333456480E+01      0.5179010633E+01
          0                 2           2             4    7     1      -0.1228572068E+00       5    8    1        -0.6728114650E+01      0.1635883075E+02
          0                 3           2             4    7     1       0.8365099642E-02       5    8    1         0.4709001477E+00      0.1145667597E+01
          0                 4           2             4    7     1      -0.1539495188E-01       5    8    1        -0.8734543371E+00      0.2139126108E+01
          0                 5           2             4    7     1       0.1884588240E-03       4    7    1         0.1098380796E-01      0.2691517998E-01
          0                 6           1             4    7     1       0.2771707659E-05       5    8    1         0.1619083118E-03      0.3969210128E-03

    ------------------------------------------------
       NWT REQUIRED            6 OUTER ITERATIONS 
       AND A TOTAL OF         11 INNER ITERATIONS.
    ------------------------------------------------

 NO OUTPUT CONTROL FOR STRESS PERIOD   20   TIME STEP   13
 
 SOLVING FOR HEAD 
                                                   Max.-Head-Change                         Max.-Flux-Residual
  Residual-Control   Outer-Iter.   Inner-Iter.     Column Row Layer    Maximum-Head-Change  Column Row Layer    Maximum-Flux-Residual          L2-NORM 
          0                 1           2             5    8     1       0.4451279235E-01       5    8    1         0.2435127590E+01      0.5419692013E+01
          0                 2           2             4    7     1      -0.1230377297E+00       5    8    1        -0.6742116323E+01      0.1638901436E+02
          0                 3           2             4    7     1       0.8377392936E-02       5    8    1         0.4718837803E+00      0.1147779228E+01
          0                 4           2             4    7     1      -0.1532791423E-01       5    8    1        -0.8696635219E+00      0.2129827423E+01
          0                 5           2             4    7     1       0.1876567729E-03       4    7    1         0.1093703720E-01      0.2680077548E-01
          0                 6           1             4    7     1       0.2759911705E-05       5    8    1         0.1612210031E-03      0.3952355348E-03

    ------------------------------------------------
       NWT REQUIRED            6 OUTER ITERATIONS 
       AND A TOTAL OF         11 INNER ITERATIONS.
    ------------------------------------------------

 NO OUTPUT CONTROL FOR STRESS PERIOD   20   TIME STEP   14
 
 SOLVING FOR HEAD 
                                                   Max.-Head-Change                         Max.-Flux-Residual
  Residual-Control   Outer-Iter.   Inner-Iter.     Column Row Layer    Maximum-Head-Change  Column Row Layer    Maximum-Flux-Residual          L2-NORM 
          0                 1           2             5    8     1       0.4628948312E-01       5    8    1         0.2531972430E+01      0.5651367897E+01
          0                 2           2             4    7     1      -0.1232188650E+00       5    8    1        -0.6755625354E+01      0.1641855701E+02
          0                 3           2             4    7     1       0.8389719233E-02       5    8    1         0.4728320543E+00      0.1149844707E+01
          0                 4           2             4    7     1      -0.1526105472E-01       5    8    1        -0.8658812353E+00      0.2120551362E+01
          0                 5           2             4    7     1       0.1868650989E-03       4    7    1         0.1089087146E-01      0.2668782946E-01
          0                 6           1             4    7     1       0.2748268428E-05       5    8    1         0.1605424552E-03      0.3935649881E-03

    ------------------------------------------------
       NWT REQUIRED            6 OUTER ITERATIONS 
       AND A TOTAL OF         11 INNER ITERATIONS.
    ------------------------------------------------

 NO OUTPUT CONTROL FOR STRESS PERIOD   20   TIME STEP   15
 
 SOLVING FOR HEAD 
                                                   Max.-Head-Change                         Max.-Flux-Residual
  Residual-Control   Outer-Iter.   Inner-Iter.     Column Row Layer    Maximum-Head-Change  Column Row Layer    Maximum-Flux-Residual          L2-NORM 
          0                 1           2             5    8     1       0.4798479333E-01       5    8    1         0.2624302040E+01      0.5874506104E+01
          0                 2           2             4    7     1      -0.1234004367E+00       5    8    1        -0.6768672373E+01      0.1644748446E+02
          0                 3           2             4    7     1       0.8402101124E-02       5    8    1         0.4737478961E+00      0.1151865057E+01
          0                 4           2             4    7     1      -0.1519438258E-01       5    8    1        -0.8621079653E+00      0.2111299166E+01
          0                 5           2             4    7     1       0.1860511924E-03       4    7    1         0.1084341004E-01      0.2657169883E-01
          0                 6           1             4    7     1       0.2736298065E-05       5    8    1         0.1598446004E-03      0.3918520057E-03

    ------------------------------------------------
       NWT REQUIRED            6 OUTER ITERATIONS 
       AND A TOTAL OF         11 INNER ITERATIONS.
    ------------------------------------------------

 NO OUTPUT CONTROL FOR STRESS PERIOD   20   TIME STEP   16
 
 SOLVING FOR HEAD 
                                                   Max.-Head-Change                         Max.-Flux-Residual
  Residual-Control   Outer-Iter.   Inner-Iter.     Column Row Layer    Maximum-Head-Change  Column Row Layer    Maximum-Flux-Residual          L2-NORM 
          0                 1           2             5    8     1       0.4960371178E-01       5    8    1         0.2712396212E+01      0.6089532082E+01
          0                 2           2             4    7     1      -0.1235822294E+00       5    8    1        -0.6781284882E+01      0.1647581769E+02
          0                 3           2             4    7     1       0.8414437518E-02       5    8    1         0.4746298700E+00      0.1153837944E+01
          0                 4           2             4    7     1      -0.1512786008E-01       5    8    1        -0.8583418821E+00      0.2102065934E+01
          0                 5           2             4    7     1       0.1852473121E-03       4    7    1         0.1079653323E-01      0.2645698013E-01
          0                 6           1             4    7     1       0.2724475340E-05       5    8    1         0.1591551422E-03      0.3901593668E-03

    ------------------------------------------------
       NWT REQUIRED            6 OUTER ITERATIONS 
       AND A TOTAL OF         11 INNER ITERATIONS.
    ------------------------------------------------

 NO OUTPUT CONTROL FOR STRESS PERIOD   20   TIME STEP   17
 
 SOLVING FOR HEAD 
                                                   Max.-Head-Change                         Max.-Flux-Residual
  Residual-Control   Outer-Iter.   Inner-Iter.     Column Row Layer    Maximum-Head-Change  Column Row Layer    Maximum-Flux-Residual          L2-NORM 
          0                 1           2             5    8     1       0.5115099405E-01       5    8    1         0.2796521482E+01      0.6296872431E+01
          0                 2           2             5    7     1      -0.1237770438E+00       5    8    1        -0.6793491442E+01      0.1650358512E+02
          0                 3           2             5    7     1       0.8427730203E-02       5    8    1         0.4754866592E+00      0.1155779482E+01
          0                 4           2             4    7     1      -0.1506155893E-01       5    8    1        -0.8545871561E+00      0.2092861795E+01
          0                 5           2             4    7     1       0.1844543420E-03       4    7    1         0.1075029257E-01      0.2634380044E-01
          0                 6           1             4    7     1       0.2712812685E-05       5    8    1         0.1584748215E-03      0.3884892608E-03

    ------------------------------------------------
       NWT REQUIRED            6 OUTER ITERATIONS 
       AND A TOTAL OF         11 INNER ITERATIONS.
    ------------------------------------------------

 NO OUTPUT CONTROL FOR STRESS PERIOD   20   TIME STEP   18
 
 SOLVING FOR HEAD 
                                                   Max.-Head-Change                         Max.-Flux-Residual
  Residual-Control   Outer-Iter.   Inner-Iter.     Column Row Layer    Maximum-Head-Change  Column Row Layer    Maximum-Flux-Residual          L2-NORM 
          0                 1           2             5    8     1       0.5263118844E-01       5    8    1         0.2876932241E+01      0.6496915777E+01
          0                 2           2             5    7     1      -0.1239806577E+00       5    8    1        -0.6805316062E+01      0.1653080531E+02
          0                 3           2             5    7     1       0.8441587020E-02       5    8    1         0.4763143850E+00      0.1157678760E+01
          0                 4           2             4    7     1      -0.1499540789E-01       5    8    1        -0.8508397371E+00      0.2083676936E+01
          0                 5           2             4    7     1       0.1836386802E-03       4    7    1         0.1070272953E-01      0.2622736780E-01
          0                 6           1             4    7     1       0.2700816782E-05       5    8    1         0.1577750415E-03      0.3867712627E-03

    ------------------------------------------------
       NWT REQUIRED            6 OUTER ITERATIONS 
       AND A TOTAL OF         11 INNER ITERATIONS.
    ------------------------------------------------

 NO OUTPUT CONTROL FOR STRESS PERIOD   20   TIME STEP   19
 
 SOLVING FOR HEAD 
                                                   Max.-Head-Change                         Max.-Flux-Residual
  Residual-Control   Outer-Iter.   Inner-Iter.     Column Row Layer    Maximum-Head-Change  Column Row Layer    Maximum-Flux-Residual          L2-NORM 
          0                 1           2             5    8     1       0.5404808096E-01       5    8    1         0.2953840831E+01      0.6690028914E+01
          0                 2           2             5    7     1      -0.1241810847E+00       5    8    1        -0.6816780454E+01      0.1655749882E+02
          0                 3           2             5    7     1       0.8455252454E-02       5    8    1         0.4771178510E+00      0.1159544185E+01
          0                 4           2             4    7     1      -0.1492946746E-01       5    8    1        -0.8471032011E+00      0.2074519904E+01
          0                 5           2             4    7     1       0.1828747006E-03       4    7    1         0.1065817913E-01      0.2611829779E-01
          0                 6           1             4    7     1       0.2665037760E-05       5    8    1         0.1556888240E-03      0.3816643847E-03

    ------------------------------------------------
       NWT REQUIRED            6 OUTER ITERATIONS 
       AND A TOTAL OF         11 INNER ITERATIONS.
    ------------------------------------------------

 NO OUTPUT CONTROL FOR STRESS PERIOD   20   TIME STEP   20
 
 SOLVING FOR HEAD 
                                                   Max.-Head-Change                         Max.-Flux-Residual
  Residual-Control   Outer-Iter.   Inner-Iter.     Column Row Layer    Maximum-Head-Change  Column Row Layer    Maximum-Flux-Residual          L2-NORM 
          0                 1           2             5    8     1       0.5540560927E-01       5    8    1         0.3027467035E+01      0.6876563959E+01
          0                 2           2             5    7     1      -0.1243784199E+00       5    8    1        -0.6827907548E+01      0.1658368900E+02
          0                 3           2             5    7     1       0.8468681671E-02       5    8    1         0.4778962760E+00      0.1161371059E+01
          0                 4           2             4    7     1      -0.1486363434E-01       5    8    1        -0.8433718399E+00      0.2065376489E+01
          0                 5           2             4    7     1       0.1820384159E-03       4    7    1         0.1060941461E-01      0.2599889171E-01
          0                 6           1             4    7     1       0.2677281330E-05       5    8    1         0.1564014453E-03      0.3834004687E-03

    ------------------------------------------------
       NWT REQUIRED            6 OUTER ITERATIONS 
       AND A TOTAL OF         11 INNER ITERATIONS.
    ------------------------------------------------

 NO OUTPUT CONTROL FOR STRESS PERIOD   20   TIME STEP   21
 
 SOLVING FOR HEAD 
                                                   Max.-Head-Change                         Max.-Flux-Residual
  Residual-Control   Outer-Iter.   Inner-Iter.     Column Row Layer    Maximum-Head-Change  Column Row Layer    Maximum-Flux-Residual          L2-NORM 
          0                 1           2             5    8     1       0.5670742417E-01       5    8    1         0.3098015048E+01      0.7056853691E+01
          0                 2           2             5    7     1      -0.1245726647E+00       5    8    1        -0.6838715859E+01      0.1660939039E+02
          0                 3           2             5    7     1       0.8481908976E-02       5    8    1         0.4786528632E+00      0.1163165118E+01
          0                 4           2             4    7     1      -0.1479803561E-01       5    8    1        -0.8396529369E+00      0.2056264447E+01
          0                 5           2             4    7     1       0.1812786496E-03       4    7    1         0.1056511035E-01      0.2589039188E-01
          0                 6           1             4    7     1       0.2666107177E-05       5    8    1         0.1557490593E-03      0.3818108306E-03

    ------------------------------------------------
       NWT REQUIRED            6 OUTER ITERATIONS 
       AND A TOTAL OF         11 INNER ITERATIONS.
    ------------------------------------------------

 NO OUTPUT CONTROL FOR STRESS PERIOD   20   TIME STEP   22
 
 SOLVING FOR HEAD 
                                                   Max.-Head-Change                         Max.-Flux-Residual
  Residual-Control   Outer-Iter.   Inner-Iter.     Column Row Layer    Maximum-Head-Change  Column Row Layer    Maximum-Flux-Residual          L2-NORM 
          0                 1           2             5    8     1       0.5795663517E-01       5    8    1         0.3165658452E+01      0.7231195350E+01
          0                 2           2             5    7     1      -0.1247639037E+00       5    8    1        -0.6849223698E+01      0.1663462183E+02
          0                 3           2             5    7     1       0.8494931588E-02       5    8    1         0.4793884176E+00      0.1164926325E+01
          0                 4           2             4    7     1      -0.1473258646E-01       5    8    1        -0.8359417568E+00      0.2047172097E+01
          0                 5           2             4    7     1       0.1804634611E-03       4    7    1         0.1051757603E-01      0.2577396993E-01
          0                 6           1             4    7     1       0.2654117883E-05       5    8    1         0.1550489847E-03      0.3800852357E-03

    ------------------------------------------------
       NWT REQUIRED            6 OUTER ITERATIONS 
       AND A TOTAL OF         11 INNER ITERATIONS.
    ------------------------------------------------

 NO OUTPUT CONTROL FOR STRESS PERIOD   20   TIME STEP   23
 
 SOLVING FOR HEAD 
                                                   Max.-Head-Change                         Max.-Flux-Residual
  Residual-Control   Outer-Iter.   Inner-Iter.     Column Row Layer    Maximum-Head-Change  Column Row Layer    Maximum-Flux-Residual          L2-NORM 
          0                 1           2             5    8     1       0.5915627055E-01       5    8    1         0.3230566414E+01      0.7399871705E+01
          0                 2           2             5    7     1      -0.1249522318E+00       5    8    1        -0.6859449412E+01      0.1665940415E+02
          0                 3           2             5    7     1       0.8507764512E-02       5    8    1         0.4801047002E+00      0.1166657354E+01
          0                 4           2             4    7     1      -0.1466732070E-01       5    8    1        -0.8322402788E+00      0.2038104231E+01
          0                 5           2             4    7     1       0.1796832577E-03       4    7    1         0.1047208120E-01      0.2566253226E-01
          0                 6           1             4    7     1       0.2642643639E-05       5    8    1         0.1543788039E-03      0.3784388447E-03

    ------------------------------------------------
       NWT REQUIRED            6 OUTER ITERATIONS 
       AND A TOTAL OF         11 INNER ITERATIONS.
    ------------------------------------------------

 NO OUTPUT CONTROL FOR STRESS PERIOD   20   TIME STEP   24
 
 SOLVING FOR HEAD 
                                                   Max.-Head-Change                         Max.-Flux-Residual
  Residual-Control   Outer-Iter.   Inner-Iter.     Column Row Layer    Maximum-Head-Change  Column Row Layer    Maximum-Flux-Residual          L2-NORM 
          0                 1           2             5    8     1       0.6030942942E-01       5    8    1         0.3292911550E+01      0.7563171492E+01
          0                 2           2             5    7     1      -0.1251376684E+00       5    8    1        -0.6869408356E+01      0.1668374984E+02
          0                 3           2             5    7     1       0.8520400520E-02       5    8    1         0.4808023091E+00      0.1168357930E+01
          0                 4           2             4    7     1      -0.1460222073E-01       5    8    1        -0.8285475738E+00      0.2029058488E+01
          0                 5           2             4    7     1       0.1789214602E-03       4    7    1         0.1042765947E-01      0.2555371047E-01
          0                 6           1             4    7     1       0.2606896206E-05       5    8    1         0.1522937887E-03      0.3733355512E-03

    ------------------------------------------------
       NWT REQUIRED            6 OUTER ITERATIONS 
       AND A TOTAL OF         11 INNER ITERATIONS.
    ------------------------------------------------

 NO OUTPUT CONTROL FOR STRESS PERIOD   20   TIME STEP   25
 
 SOLVING FOR HEAD 
                                                   Max.-Head-Change                         Max.-Flux-Residual
  Residual-Control   Outer-Iter.   Inner-Iter.     Column Row Layer    Maximum-Head-Change  Column Row Layer    Maximum-Flux-Residual          L2-NORM 
          0                 1           2             5    8     1       0.6141842002E-01       5    8    1         0.3352823202E+01      0.7721343099E+01
          0                 2           2             5    7     1      -0.1253202920E+00       5    8    1        -0.6879113940E+01      0.1670767492E+02
          0                 3           2             5    7     1       0.8532819303E-02       5    8    1         0.4814807523E+00      0.1170025708E+01
          0                 4           2             4    7     1      -0.1453726858E-01       5    8    1        -0.8248626681E+00      0.2020032440E+01
          0                 5           2             4    7     1       0.1781205810E-03       4    7    1         0.1038096014E-01      0.2543930139E-01
          0                 6           1             4    7     1       0.2619660762E-05       5    8    1         0.1530361819E-03      0.3751500852E-03

    ------------------------------------------------
       NWT REQUIRED            6 OUTER ITERATIONS 
       AND A TOTAL OF         11 INNER ITERATIONS.
    ------------------------------------------------

 NO OUTPUT CONTROL FOR STRESS PERIOD   20   TIME STEP   26
 
 SOLVING FOR HEAD 
                                                   Max.-Head-Change                         Max.-Flux-Residual
  Residual-Control   Outer-Iter.   Inner-Iter.     Column Row Layer    Maximum-Head-Change  Column Row Layer    Maximum-Flux-Residual          L2-NORM 
          0                 1           2             5    8     1       0.6248596316E-01       5    8    1         0.3410452406E+01      0.7874619955E+01
          0                 2           2             5    7     1      -0.1255001661E+00       5    8    1        -0.6888581745E+01      0.1673119488E+02
          0                 3           2             5    7     1       0.8545059390E-02       5    8    1         0.4821430280E+00      0.1171666410E+01
          0                 4           2             4    7     1      -0.1447249054E-01       5    8    1        -0.8211871146E+00      0.2011029826E+01
          0                 5           2             4    7     1       0.1773545724E-03       4    7    1         0.1033629362E-01      0.2532985854E-01
          0                 6           1             4    7     1       0.2583851608E-05       5    8    1         0.1509473684E-03      0.3700320301E-03

    ------------------------------------------------
       NWT REQUIRED            6 OUTER ITERATIONS 
       AND A TOTAL OF         11 INNER ITERATIONS.
    ------------------------------------------------

 NO OUTPUT CONTROL FOR STRESS PERIOD   20   TIME STEP   27
 
 SOLVING FOR HEAD 
                                                   Max.-Head-Change                         Max.-Flux-Residual
  Residual-Control   Outer-Iter.   Inner-Iter.     Column Row Layer    Maximum-Head-Change  Column Row Layer    Maximum-Flux-Residual          L2-NORM 
          0                 1           2             5    8     1       0.6351430961E-01       5    8    1         0.3465924605E+01      0.8023239828E+01
          0                 2           2             5    7     1      -0.1256773867E+00       5    8    1        -0.6897825747E+01      0.1675432810E+02
          0                 3           2             5    7     1       0.8557161555E-02       5    8    1         0.4827920215E+00      0.1173285855E+01
          0                 4           2             4    7     1      -0.1440787947E-01       5    8    1        -0.8175205547E+00      0.2002049717E+01
          0                 5           2             4    7     1       0.1765333551E-03       4    7    1         0.1028840955E-01      0.2521253061E-01
          0                 6           1             4    7     1       0.2596317081E-05       5    8    1         0.1516721295E-03      0.3717997668E-03

    ------------------------------------------------
       NWT REQUIRED            6 OUTER ITERATIONS 
       AND A TOTAL OF         11 INNER ITERATIONS.
    ------------------------------------------------

 NO OUTPUT CONTROL FOR STRESS PERIOD   20   TIME STEP   28
 
 SOLVING FOR HEAD 
                                                   Max.-Head-Change                         Max.-Flux-Residual
  Residual-Control   Outer-Iter.   Inner-Iter.     Column Row Layer    Maximum-Head-Change  Column Row Layer    Maximum-Flux-Residual          L2-NORM 
          0                 1           2             5    8     1       0.6450569231E-01       5    8    1         0.3519364297E+01      0.8167415956E+01
          0                 2           2             5    7     1      -0.1258519789E+00       5    8    1        -0.6906856010E+01      0.1677708263E+02
          0                 3           2             5    7     1       0.8569050503E-02       5    8    1         0.4834241461E+00      0.1174874546E+01
          0                 4           2             4    7     1      -0.1434344881E-01       5    8    1        -0.8138637952E+00      0.1993094048E+01
          0                 5           2             4    7     1       0.1757961733E-03       4    7    1         0.1024542388E-01      0.2510718776E-01
          0                 6           1             4    7     1       0.2560931795E-05       5    8    1         0.1496078967E-03      0.3667472700E-03

    ------------------------------------------------
       NWT REQUIRED            6 OUTER ITERATIONS 
       AND A TOTAL OF         11 INNER ITERATIONS.
    ------------------------------------------------

 NO OUTPUT CONTROL FOR STRESS PERIOD   20   TIME STEP   29
 
 SOLVING FOR HEAD 
                                                   Max.-Head-Change                         Max.-Flux-Residual
  Residual-Control   Outer-Iter.   Inner-Iter.     Column Row Layer    Maximum-Head-Change  Column Row Layer    Maximum-Flux-Residual          L2-NORM 
          0                 1           2             5    8     1       0.6545958296E-01       5    8    1         0.3570871612E+01      0.8302353846E+01
          0                 2           2             5    7     1      -0.1260237768E+00       5    8    1        -0.6915682987E+01      0.1679316902E+02
          0                 3           2             4    7     1      -0.3385959844E-02       4    7    1        -0.1819404431E+00      0.4337189722E+00
          0                 4           2             4    7     1      -0.1449051443E-01       5    8    1        -0.7784707350E+00      0.1906084723E+01
          0                 5           2             4    7     1       0.9859074241E-03       5    8    1         0.5445682983E-01      0.1333292196E+00
          0                 6           1             4    7     1      -0.3924879023E-04       5    8    1        -0.2228753318E-02      0.5456656997E-02

    ------------------------------------------------
       NWT REQUIRED            6 OUTER ITERATIONS 
       AND A TOTAL OF         11 INNER ITERATIONS.
    ------------------------------------------------

 NO OUTPUT CONTROL FOR STRESS PERIOD   20   TIME STEP   30



 STREAM LISTING     PERIOD     20   STEP       30

 LAYER ROW COL. STREAM  RCH.  FLOW INTO     FLOW TO   FLOW OUT OF   OVRLND.     DIRECT     STREAM       STREAM     STREAM     STREAM   STREAMBED  STREAMBED
                SEG.NO.  NO.  STRM. RCH.    AQUIFER    STRM. RCH.    RUNOFF     PRECIP       ET          HEAD       DEPTH      WIDTH   CONDCTNC.   GRADIENT

   1    1    1     1     1    1.6138E+01  1.9509E-01   1.5943E+01  0.000E+00  0.000E+00  0.000E+00  1.09408E+03  1.032E+00  1.075E+01  4.839E-02  1.344E+00
   1    2    2     1     2    1.5943E+01  3.0079E-01   1.5642E+01  0.000E+00  0.000E+00  0.000E+00  1.08909E+03  1.027E+00  1.067E+01  7.469E-02  1.342E+00
   1    3    3     1     3    1.5642E+01  2.5522E-01   1.5387E+01  0.000E+00  0.000E+00  0.000E+00  1.08344E+03  1.022E+00  1.058E+01  6.345E-02  1.341E+00
   1    3    4     1     4    1.5387E+01  2.3394E-01   1.5153E+01  0.000E+00  0.000E+00  0.000E+00  1.07843E+03  1.017E+00  1.049E+01  5.823E-02  1.339E+00
   1    4    5     2     1    1.3153E+01  2.9763E-01   1.2856E+01  0.000E+00  0.000E+00  0.000E+00  1.07275E+03  8.158E-01  1.200E+01  7.800E-02  1.272E+00
   1    5    6     2     2    1.2856E+01  2.2835E-01   1.2627E+01  0.000E+00  0.000E+00  0.000E+00  1.06732E+03  8.059E-01  1.200E+01  6.000E-02  1.269E+00
   1    6    6     2     3    1.2627E+01  2.2783E-01   1.2399E+01  0.000E+00  0.000E+00  0.000E+00  1.06259E+03  7.972E-01  1.200E+01  6.000E-02  1.266E+00
   1    7    6     2     4    1.2399E+01  2.2731E-01   1.2172E+01  0.000E+00  0.000E+00  0.000E+00  1.05786E+03  7.885E-01  1.200E+01  6.000E-02  1.263E+00
   1    8    6     2     5    1.2172E+01  2.2678E-01   1.1945E+01  0.000E+00  0.000E+00  0.000E+00  1.05314E+03  7.797E-01  1.200E+01  6.000E-02  1.260E+00
   1    3    5     3     1    2.0000E+00  2.8252E-01   1.7175E+00  0.000E+00  0.000E+00  0.000E+00  1.07555E+03  1.909E+00  9.636E+00  7.227E-02  1.955E+00
   1    3    6     3     2    1.7175E+00  2.4905E-01   1.4684E+00  0.000E+00  0.000E+00  0.000E+00  1.07264E+03  1.727E+00  8.909E+00  6.682E-02  1.864E+00
   1    3    7     3     3    1.4684E+00  1.9718E-01   1.2712E+00  0.000E+00  0.000E+00  0.000E+00  1.06987E+03  1.555E+00  8.218E+00  5.547E-02  1.777E+00
   1    4    8     3     4    1.2712E+00  2.2567E-01   1.0456E+00  0.000E+00  0.000E+00  0.000E+00  1.06682E+03  1.364E+00  7.455E+00  6.709E-02  1.682E+00
   1    5    8     3     5    1.0456E+00  1.5790E-01   8.8768E-01  0.000E+00  0.000E+00  0.000E+00  1.06362E+03  1.164E+00  6.655E+00  4.991E-02  1.582E+00
   1    6    8     3     6    8.8768E-01  5.5980E-02   8.3170E-01  0.000E+00  0.000E+00  0.000E+00  1.06158E+03  1.036E+00  6.145E+00  1.844E-02  1.518E+00
   1    5   10     4     1    1.0000E+01  9.0919E-02   9.9091E+00  0.000E+00  0.000E+00  0.000E+00  1.07836E+03  6.368E-01  1.000E+01  2.500E-02  1.212E+00
   1    5    9     4     2    9.9091E+00  1.8158E-01   9.7275E+00  0.000E+00  0.000E+00  0.000E+00  1.07154E+03  6.315E-01  1.000E+01  5.000E-02  1.211E+00
   1    6    8     4     3    9.7275E+00  1.2689E-01   9.6006E+00  0.000E+00  0.000E+00  0.000E+00  1.06381E+03  6.256E-01  1.000E+01  3.500E-02  1.209E+00
   1    6    8     5     1    1.0432E+01  2.2686E-01   1.0205E+01  0.000E+00  0.000E+00  0.000E+00  1.05868E+03  6.790E-01  1.542E+01  6.166E-02  1.226E+00
   1    7    7     5     2    1.0205E+01  2.7894E-01   9.9265E+00  0.000E+00  0.000E+00  0.000E+00  1.05417E+03  6.732E-01  1.519E+01  7.594E-02  1.224E+00
   1    8    7     5     3    9.9265E+00  1.9221E-01   9.7343E+00  0.000E+00  0.000E+00  0.000E+00  1.04992E+03  6.676E-01  1.497E+01  5.241E-02  1.223E+00
   1    8    6     5     4    9.7343E+00  1.3577E-01   9.5985E+00  0.000E+00  0.000E+00  0.000E+00  1.04691E+03  6.637E-01  1.482E+01  3.706E-02  1.221E+00
   1    9    6     6     1    9.5985E+00  2.2097E-01   9.3776E+00  0.000E+00  0.000E+00  0.000E+00  1.04341E+03  6.828E-01  1.200E+01  6.000E-02  1.228E+00
   1   10    7     6     2    9.3776E+00  2.2039E-01   9.1572E+00  0.000E+00  0.000E+00  0.000E+00  1.03885E+03  6.732E-01  1.200E+01  6.000E-02  1.224E+00
   1   11    7     6     3    9.1572E+00  2.1981E-01   8.9374E+00  0.000E+00  0.000E+00  0.000E+00  1.03430E+03  6.636E-01  1.200E+01  6.000E-02  1.221E+00
   1   12    7     6     4    8.9374E+00  2.1923E-01   8.7181E+00  0.000E+00  0.000E+00  0.000E+00  1.02974E+03  6.539E-01  1.200E+01  6.000E-02  1.218E+00
   1   13    7     6     5    8.7181E+00 -5.0331E-02   8.7685E+00  0.000E+00  0.000E+00  0.000E+00  1.02656E+03  6.501E-01  1.200E+01  2.400E-01 -6.990E-02
   1   14    9     7     1    1.5000E+02  1.3721E+00   1.4863E+02  0.000E+00  0.000E+00  0.000E+00  1.03987E+03  2.288E+00  5.529E+01  5.593E-01  8.178E-01
   1   13    8     7     2    1.4863E+02  1.9338E+00   1.4669E+02  0.000E+00  0.000E+00  0.000E+00  1.03478E+03  2.279E+00  5.525E+01  6.148E-01  1.049E+00
   1   13    7     7     3    1.4669E+02  1.6304E+00   1.4506E+02  0.000E+00  0.000E+00  0.000E+00  1.02969E+03  2.269E+00  5.521E+01  5.584E-01  9.733E-01
   1   13    6     8     1    1.5383E+02  9.8261E-01   1.5285E+02  0.000E+00  0.000E+00  0.000E+00  1.02472E+03  2.840E+00  4.118E+01  4.197E-01  7.805E-01
   1   13    5     8     2    1.5285E+02  2.4432E-01   1.5261E+02  0.000E+00  0.000E+00  0.000E+00  1.01846E+03  2.836E+00  4.112E+01  4.190E-01  1.943E-01
   1   13    4     8     3    1.5261E+02 -2.1807E+00   1.5479E+02  0.000E+00  0.000E+00  0.000E+00  1.01222E+03  2.843E+00  4.122E+01  4.200E+00 -1.731E-01
   1   13    3     8     4    1.5479E+02 -3.5127E+00   1.5830E+02  0.000E+00  0.000E+00  0.000E+00  1.00599E+03  2.862E+00  4.150E+01  4.229E+00 -2.768E-01
   1   13    2     8     5    1.5830E+02 -2.5491E+00   1.6085E+02  0.000E+00  0.000E+00  0.000E+00  9.99758E+02  2.883E+00  4.180E+01  4.260E+00 -1.995E-01
   1   13    1     8     6    1.6085E+02 -1.9792E+00   1.6283E+02  0.000E+00  0.000E+00  0.000E+00  9.94773E+02  2.898E+00  4.202E+01  2.569E+00 -2.568E-01
   1    8    6     9     1    1.1945E+01  0.0000E+00   1.1945E+01  0.000E+00  0.000E+00  0.000E+00  1.08127E+03  2.521E+00  4.000E+00  0.000E+00  1.840E+00
   1    8    5     9     2    1.1945E+01  0.0000E+00   1.1945E+01  0.000E+00  0.000E+00  0.000E+00  1.08077E+03  2.521E+00  4.000E+00  0.000E+00  1.840E+00





UNSATURATED ZONE PACKAGE VOLUMETRIC BUDGET FOR  TIME STEP    30 STRESS PERIOD   20
  ------------------------------------------------------------------------------



     CUMULATIVE VOLUMES      L**3       RATES FOR THIS TIME STEP      L**3/T
     ------------------                 ------------------------

           IN:                                      IN:
           ---                                      ---
        INFILTRATION =   695619133.1847          INFILTRATION =          60.8161

          OUT:                                     OUT:
          ----                                     ----
              UZF ET =   691773443.2042                UZF ET =          60.8175
        UZF RECHARGE =       73224.0000          UZF RECHARGE =       0.0000E+00

            IN - OUT =     3772465.9805              IN - OUT =      -1.4019E-03

          STORAGE:                                 STORAGE:
          --------                                 --------
      STORAGE CHANGE =     3772463.4275        STORAGE CHANGE =      -1.3996E-03

 PERCENT DISCREPANCY IS DIFFERENCE BETWEEN IN-OUT MINUS CHANGE IN STORAGE
 DIVIDED BY THE AVERAGE OF IN AND OUT TIMES 100

 PERCENT DISCREPANCY =           0.00     PERCENT DISCREPANCY =          -0.00






1
  VOLUMETRIC BUDGET FOR AGRICULTURAL FIELDS AT  END OF TIME STEP   30, STRESS PERIOD  20
  ------------------------------------------------------------------------------

     CUMULATIVE VOLUMES      L**3       RATES FOR THIS TIME STEP      L**3/T
     ------------------                 ------------------------

           IN:                                      IN:
           ---                                      ---
           AG WELLS      =   310868704.0000             AG WELLS      =          48.0231
      DIVERSION SEGMENTS =   342358304.0000        DIVERSION SEGMENTS =          11.9453
           GW IRRIGATION =           0.0000             GW IRRIGATION =           0.0000
           SW IRRIGATION =           0.0000             SW IRRIGATION =           0.0000
        SYSTEM LOSSES GW =           0.0000          SYSTEM LOSSES GW =           0.0000
        SYSTEM LOSSES SW =           0.0000          SYSTEM LOSSES SW =           0.0000

                TOTAL IN =   653227008.0000                  TOTAL IN =          59.9684

          OUT:                                     OUT:
          ----                                     ----
           AG WELLS      =           0.0000             AG WELLS      =           0.0000
      DIVERSION SEGMENTS =           0.0000        DIVERSION SEGMENTS =           0.0000
           GW IRRIGATION =   310868704.0000             GW IRRIGATION =          48.0231
           SW IRRIGATION =   342364928.0000             SW IRRIGATION =          11.9455
        SYSTEM LOSSES GW =           0.0000          SYSTEM LOSSES GW =           0.0000
        SYSTEM LOSSES SW =           0.0000          SYSTEM LOSSES SW =           0.0000

               TOTAL OUT =   653233664.0000                 TOTAL OUT =          59.9686

                IN - OUT =       -6656.0000                  IN - OUT =      -2.4033E-04

     PERCENT DISCREPANCY =          -0.00         PERCENT DISCREPANCY =          -0.00



1
  VOLUMETRIC BUDGET FOR ENTIRE MODEL AT END OF TIME STEP   30, STRESS PERIOD  20
  ------------------------------------------------------------------------------

     CUMULATIVE VOLUMES      L**3       RATES FOR THIS TIME STEP      L**3/T
     ------------------                 ------------------------

           IN:                                      IN:
           ---                                      ---
             STORAGE     =   409008672.0000               STORAGE     =          46.8677
       CONSTANT HEAD     =           0.0000         CONSTANT HEAD     =           0.0000
     HEAD DEP BOUNDS     =    14416766.0000       HEAD DEP BOUNDS     =           0.2882
      STREAM LEAKAGE     =   589165504.0000        STREAM LEAKAGE     =          11.6380
        UZF RECHARGE     =       73223.9531          UZF RECHARGE     =           0.0000
               GW ET     =           0.0000                 GW ET     =           0.0000
     SURFACE LEAKAGE     =           0.0000       SURFACE LEAKAGE     =           0.0000
           AG WELLS      =           0.0000             AG WELLS      =           0.0000

                TOTAL IN =  1012664192.0000                  TOTAL IN =          58.7939

          OUT:                                     OUT:
          ----                                     ----
             STORAGE     =   172415232.0000               STORAGE     =           0.2120
       CONSTANT HEAD     =           0.0000         CONSTANT HEAD     =           0.0000
     HEAD DEP BOUNDS     =    14421286.0000       HEAD DEP BOUNDS     =           0.2867
      STREAM LEAKAGE     =   514966272.0000        STREAM LEAKAGE     =          10.2720
        UZF RECHARGE     =           0.0000          UZF RECHARGE     =           0.0000
               GW ET     =           0.0000                 GW ET     =           0.0000
     SURFACE LEAKAGE     =           0.0000       SURFACE LEAKAGE     =           0.0000
           AG WELLS      =   310868704.0000             AG WELLS      =          48.0231

               TOTAL OUT =  1012671488.0000                 TOTAL OUT =          58.7937

                IN - OUT =       -7296.0000                  IN - OUT =       1.6785E-04

     PERCENT DISCREPANCY =          -0.00         PERCENT DISCREPANCY =           0.00






         TIME SUMMARY AT END OF TIME STEP   30 IN STRESS PERIOD   20
                    SECONDS     MINUTES      HOURS       DAYS        YEARS
                    -----------------------------------------------------------
   TIME STEP LENGTH  87667.      1461.1      24.352      1.0147     2.77799E-03
 STRESS PERIOD TIME 2.63000E+06  43833.      730.56      30.440     8.33397E-02
         TOTAL TIME 5.00565E+07 8.34276E+05  13905.      579.36      1.5862    
1
1
                            STRESS PERIOD NO.   21, LENGTH =   2630000.    
                            -----------------------------------------------

                              NUMBER OF TIME STEPS =    30

                               MULTIPLIER FOR DELT =     1.000

                            INITIAL TIME STEP SIZE =   87666.66    

 REUSING NON-PARAMETER GHB CELLS FROM LAST STRESS PERIOD

      2 GHB CELLS

 REUSING STREAM SEGMENT DATA FROM LAST STRESS PERIOD



            AREAL INFILTRATION RATE
 READING ON UNIT   19 WITH FORMAT: (FREE)              

            1           2           3           4           5           6           7           8           9          10
 ........................................................................................................................
   1   1.0000E-10  2.0000E-10   0.000       0.000       0.000       0.000       0.000       0.000       0.000       0.000    
   2   2.0000E-10  1.0000E-10  2.0000E-10   0.000       0.000      8.0000E-10  8.0000E-10  5.0000E-10   0.000       0.000    
   3    0.000      5.0000E-10  1.0000E-10  1.0000E-10  8.0000E-10  8.0000E-10  5.0000E-10  5.0000E-10   0.000       0.000    
   4   8.0000E-10  5.0000E-10  1.0000E-10  1.0000E-10  1.0000E-10  1.0000E-10  1.0000E-10  1.0000E-10  2.0000E-10   0.000    
   5   8.0000E-10  5.0000E-10  1.0000E-10  1.0000E-10  1.0000E-10  1.0000E-10  1.0000E-10  1.0000E-10  1.0000E-10  1.0000E-10
   6   8.0000E-10  5.0000E-10  5.0000E-10  2.0000E-10  2.0000E-10  1.0000E-10  1.0000E-10  1.0000E-10  1.0000E-10  5.0000E-10
   7   8.0000E-10  5.0000E-10  5.0000E-10  2.0000E-10  2.0000E-10  1.0000E-10  1.0000E-10  2.0000E-10  2.0000E-10   0.000    
   8    0.000      5.0000E-10  5.0000E-10  2.0000E-10  2.0000E-10  1.0000E-10  1.0000E-10  2.0000E-10  5.0000E-10   0.000    
   9    0.000      5.0000E-10  5.0000E-10  2.0000E-10  2.0000E-10  1.0000E-10  1.0000E-10  2.0000E-10  5.0000E-10   0.000    
  10    0.000      5.0000E-10  5.0000E-10  2.0000E-10  2.0000E-10  1.0000E-10  1.0000E-10  2.0000E-10  5.0000E-10  8.0000E-10
  11    0.000      1.0000E-10  1.0000E-10  1.0000E-10  1.0000E-10  1.0000E-10  1.0000E-10  2.0000E-10  5.0000E-10   0.000    
  12   1.0000E-10  1.0000E-10  1.0000E-10  1.0000E-10  1.0000E-10  1.0000E-10  1.0000E-10  1.0000E-10  2.0000E-10   0.000    
  13   1.0000E-10  1.0000E-10  2.0000E-10  2.0000E-10  2.0000E-10  2.0000E-10  2.0000E-10  1.0000E-10  1.0000E-10   0.000    
  14    0.000      2.0000E-10  5.0000E-10  5.0000E-10  5.0000E-10  5.0000E-10  5.0000E-10  2.0000E-10  1.0000E-10   0.000    
  15    0.000       0.000      8.0000E-10  8.0000E-10  8.0000E-10  8.0000E-10   0.000       0.000       0.000       0.000    

                  ET RATE =  3.250000E-07

 USING ET EXTINCTION DEPTH FROM PREVIOUS STRESS PERIOD. CURRENT PERIOD IS:      21

 USING EXTINCTION WATER CONTENT FROM PREVIOUS STRESS PERIOD. CURRENT PERIOD IS:      21

 USING AIR ENTRY PRESSURE FROM PREVIOUS STRESS PERIOD. CURRENT PERIOD IS:      21

 USING ROOT PRESSURE HEAD FROM PREVIOUS STRESS PERIOD. CURRENT PERIOD IS:      21

 USING ROOT ACTIVITY FROM PREVIOUS STRESS PERIOD. CURRENT PERIOD IS:      21

 PROCESSING AG STRESS PERIOD DATA

 READING AG STRESS PERIOD DATA

 READING IRRIGATION SEGMENT

 READING IRRIGATION WELL

 READING SUPPLEMENTAL WELL

 END PROCESSING AG STRESS PERIOD DATA OPTIONS
 
 SOLVING FOR HEAD 
                                                   Max.-Head-Change                         Max.-Flux-Residual
  Residual-Control   Outer-Iter.   Inner-Iter.     Column Row Layer    Maximum-Head-Change  Column Row Layer    Maximum-Flux-Residual          L2-NORM 
          0                 1           2             5    8     1       0.6673217121E-01       5    8    1         0.3639929527E+01      0.8470134414E+01
          0                 2           2             4    7     1      -0.2243295488E+00       5    8    1        -0.1219898676E+02      0.2972339945E+02
          0                 3           2             4    7     1       0.1527576223E-01       5    8    1         0.8538701719E+00      0.2080532491E+01
          0                 4           2             4    7     1      -0.6078380540E-03       5    8    1        -0.3491892089E-01      0.8508785426E-01
          0                 5           1             4    7     1       0.7494904937E-05       5    8    1         0.4422260677E-03      0.1078110669E-02

    ------------------------------------------------
       NWT REQUIRED            5 OUTER ITERATIONS 
       AND A TOTAL OF          9 INNER ITERATIONS.
    ------------------------------------------------

 NO OUTPUT CONTROL FOR STRESS PERIOD   21   TIME STEP    1
 
 SOLVING FOR HEAD 
                                                   Max.-Head-Change                         Max.-Flux-Residual
  Residual-Control   Outer-Iter.   Inner-Iter.     Column Row Layer    Maximum-Head-Change  Column Row Layer    Maximum-Flux-Residual          L2-NORM 
          0                 1           2             5    8     1       0.7002051556E-01       5    8    1         0.3820116519E+01      0.8876617626E+01
          0                 2           2             5    8     1      -0.1501526535E-01       5    8    1        -0.8337466964E+00      0.1929374134E+01
          0                 3           2             4    7     1      -0.2112441664E-01       4    7    1        -0.1133981969E+01      0.2773701062E+01
          0                 4           2             4    7     1       0.2142665602E-01       4    7    1         0.1182143737E+01      0.2894872710E+01
          0                 5           2             4    7     1      -0.2041985314E-02       4    7    1        -0.1158001715E+00      0.2836422222E+00
          0                 6           2             4    7     1      -0.9929447464E-03       4    7    1        -0.5630785263E-01      0.1379247598E+00
          0                 7           2             4    7     1      -0.1380569721E-02       4    7    1        -0.7828858708E-01      0.1917662251E+00
          0                 8           2             4    7     1      -0.1310779000E-02       4    7    1        -0.7433017303E-01      0.1820698266E+00
          0                 9           2             4    7     1      -0.1269219621E-02       4    7    1        -0.7197276007E-01      0.1762954212E+00
          0                10           2             4    7     1      -0.1252989958E-02       4    7    1        -0.7105173456E-01      0.1740394140E+00
                                                   Max.-Head-Change                         Max.-Flux-Residual
  Residual-Control   Outer-Iter.   Inner-Iter.     Column Row Layer    Maximum-Head-Change  Column Row Layer    Maximum-Flux-Residual          L2-NORM 
          0                11           2             4    7     1      -0.1268649140E-02       4    7    1        -0.7193899066E-01      0.1762127524E+00
          0                12           2             4    7     1      -0.1328658105E-02       4    7    1        -0.7534106787E-01      0.1845460922E+00
          0                13           2             4    7     1      -0.1039348075E-02       4    7    1        -0.5893524665E-01      0.1443601567E+00
          0                14           2             4    7     1      -0.1087989481E-02       4    7    1        -0.6169282187E-01      0.1511150453E+00
          0                15           2             4    7     1      -0.1178560023E-02       4    7    1        -0.6682783122E-01      0.1636931602E+00
          0                16           2             4    7     1      -0.1346033981E-02       4    7    1        -0.7632334796E-01      0.1869522537E+00
          0                17           2             4    7     1      -0.1286132256E-02       4    7    1        -0.7292604263E-01      0.1786304503E+00
          0                18           2             4    7     1      -0.1279966945E-02       4    7    1        -0.7257574350E-01      0.1777724437E+00
          0                19           2             4    7     1      -0.1341220256E-02       4    7    1        -0.7604813558E-01      0.1862780375E+00
          0                20           2             4    7     1      -0.1245539312E-02       4    7    1        -0.7062225112E-01      0.1729873400E+00
                                                   Max.-Head-Change                         Max.-Flux-Residual
  Residual-Control   Outer-Iter.   Inner-Iter.     Column Row Layer    Maximum-Head-Change  Column Row Layer    Maximum-Flux-Residual          L2-NORM 
          0                21           2             4    7     1      -0.1212855485E-02       4    7    1        -0.6876839700E-01      0.1684464220E+00
          0                22           2             4    7     1      -0.1254580459E-02       4    7    1        -0.7113348661E-01      0.1742397123E+00
          0                23           2             4    7     1      -0.1412098816E-02       4    7    1        -0.8006383843E-01      0.1961144816E+00
          0                24           2             4    7     1      -0.1265989864E-02       4    7    1        -0.7177895806E-01      0.1758206235E+00
          0                25           2             4    7     1      -0.1371316959E-02       4    7    1        -0.7775002882E-01      0.1904468173E+00
          0                26           2             4    7     1      -0.1337669805E-02       4    7    1        -0.7584156670E-01      0.1857719741E+00
          0                27           2             4    7     1      -0.1330605443E-02       4    7    1        -0.7544029548E-01      0.1847890910E+00
          0                28           2             4    7     1      -0.1411163637E-02       4    7    1        -0.8000685441E-01      0.1959748355E+00
          0                29           2             4    7     1      -0.1381225609E-02       4    7    1        -0.7830871729E-01      0.1918152000E+00
          0                30           2             4    7     1      -0.1413858563E-02       4    7    1        -0.8015805664E-01      0.1963451610E+00
          0                31           1             4    7     1       0.1779031449E-04       5    8    1         0.1037685846E-02      0.2542164687E-02

    ------------------------------------------------
       NWT REQUIRED           31 OUTER ITERATIONS 
       AND A TOTAL OF         61 INNER ITERATIONS.
    ------------------------------------------------

 NO OUTPUT CONTROL FOR STRESS PERIOD   21   TIME STEP    2
 
 SOLVING FOR HEAD 
                                                   Max.-Head-Change                         Max.-Flux-Residual
  Residual-Control   Outer-Iter.   Inner-Iter.     Column Row Layer    Maximum-Head-Change  Column Row Layer    Maximum-Flux-Residual          L2-NORM 
          0                 1           2             5    8     1       0.6807045987E-01       5    8    1         0.3711147232E+01      0.8696310666E+01
          0                 2           2             5    6     1      -0.8899877049E-01       5    8    1        -0.4903083569E+01      0.1186916871E+02
          0                 3           2             5    6     1       0.6059875243E-02       5    8    1         0.3431812344E+00      0.8318264952E+00
          0                 4           2             4    7     1      -0.1548951488E-02       5    8    1        -0.8828350091E-01      0.2158284838E+00
          0                 5           2             4    7     1      -0.1339599260E-02       4    7    1        -0.7596672793E-01      0.1860723481E+00
          0                 6           2             4    7     1      -0.1121575629E-02       5    8    1        -0.6360321398E-01      0.1557943211E+00
          0                 7           2             4    7     1      -0.1168142044E-02       5    8    1        -0.6624299548E-01      0.1622606876E+00
          0                 8           2             4    7     1      -0.1242389522E-02       5    8    1        -0.7045271666E-01      0.1725723109E+00
          0                 9           2             4    7     1      -0.1362711218E-02       5    8    1        -0.7727505884E-01      0.1892835103E+00
          0                10           2             4    7     1      -0.1276267558E-02       5    8    1        -0.7237254015E-01      0.1772747503E+00
                                                   Max.-Head-Change                         Max.-Flux-Residual
  Residual-Control   Outer-Iter.   Inner-Iter.     Column Row Layer    Maximum-Head-Change  Column Row Layer    Maximum-Flux-Residual          L2-NORM 
          0                11           2             4    7     1      -0.1212768918E-02       5    8    1        -0.6877106121E-01      0.1684530368E+00
          0                12           2             4    7     1      -0.1397712811E-02       5    8    1        -0.7925748901E-01      0.1941394787E+00
          0                13           2             4    7     1      -0.1220275641E-02       5    8    1        -0.6919545731E-01      0.1694924911E+00
          0                14           2             4    7     1      -0.1254115584E-02       5    8    1        -0.7111347380E-01      0.1741907968E+00
          0                15           2             4    7     1      -0.1333388056E-02       5    8    1        -0.7560777473E-01      0.1851995075E+00
          0                16           2             4    7     1      -0.1300368985E-02       5    8    1        -0.7373482890E-01      0.1806116856E+00
          0                17           2             4    7     1      -0.1315373300E-02       5    8    1        -0.7458484281E-01      0.1826938141E+00
          0                18           2             4    7     1      -0.1392424065E-02       5    8    1        -0.7895298396E-01      0.1933935172E+00
          0                19           2             4    7     1      -0.1278259303E-02       5    8    1        -0.7247905170E-01      0.1775356284E+00
          0                20           2             4    7     1      -0.1338801160E-02       5    8    1        -0.7591097175E-01      0.1859421722E+00
                                                   Max.-Head-Change                         Max.-Flux-Residual
  Residual-Control   Outer-Iter.   Inner-Iter.     Column Row Layer    Maximum-Head-Change  Column Row Layer    Maximum-Flux-Residual          L2-NORM 
          0                21           2             4    7     1      -0.1379552952E-02       5    8    1        -0.7822087461E-01      0.1916002039E+00
          0                22           2             4    7     1      -0.1329259678E-02       5    8    1        -0.7536855608E-01      0.1846134499E+00
          0                23           2             4    7     1      -0.1375673248E-02       5    8    1        -0.7799934426E-01      0.1910575785E+00
          0                24           2             4    7     1      -0.1403225495E-02       5    8    1        -0.7956076039E-01      0.1948822129E+00
          0                25           2             4    7     1      -0.1394174919E-02       5    8    1        -0.7904685016E-01      0.1936233752E+00
          0                26           2             4    7     1      -0.1387706172E-02       5    8    1        -0.7867930446E-01      0.1927230838E+00
          0                27           2             4    7     1      -0.1407234392E-02       5    8    1        -0.7978569567E-01      0.1954331822E+00
          0                28           2             4    7     1      -0.1412146673E-02       5    8    1        -0.8006342579E-01      0.1961134638E+00
          0                29           2             4    7     1      -0.9833207780E-03       5    8    1        -0.5575036336E-01      0.1365588716E+00
          0                30           1             4    7     1       0.1062910946E-04       4    7    1         0.6193080962E-03      0.1517287940E-02

    ------------------------------------------------
       NWT REQUIRED           30 OUTER ITERATIONS 
       AND A TOTAL OF         59 INNER ITERATIONS.
    ------------------------------------------------

 NO OUTPUT CONTROL FOR STRESS PERIOD   21   TIME STEP    3
 
 SOLVING FOR HEAD 
                                                   Max.-Head-Change                         Max.-Flux-Residual
  Residual-Control   Outer-Iter.   Inner-Iter.     Column Row Layer    Maximum-Head-Change  Column Row Layer    Maximum-Flux-Residual          L2-NORM 
          0                 1           2             5    8     1       0.6843850236E-01       5    8    1         0.3730244436E+01      0.8769301304E+01
          0                 2           2             5    6     1      -0.8955786417E-01       5    8    1        -0.4933551011E+01      0.1194710578E+02
          0                 3           2             5    6     1       0.6097955607E-02       5    8    1         0.3453144173E+00      0.8372713205E+00
          0                 4           2             4    7     1      -0.1421399969E-02       5    8    1        -0.8104128433E-01      0.1981007348E+00
          0                 5           2             4    7     1      -0.1186281967E-02       4    7    1        -0.6727218614E-01      0.1647752035E+00
          0                 6           2             4    7     1      -0.1238729958E-02       5    8    1        -0.7024652082E-01      0.1720671485E+00
          0                 7           2             4    7     1      -0.1323279140E-02       5    8    1        -0.7504033129E-01      0.1838095730E+00
          0                 8           2             4    7     1      -0.1174731655E-02       5    8    1        -0.6661602517E-01      0.1631742581E+00
          0                 9           2             4    7     1      -0.1285211596E-02       5    8    1        -0.7288013557E-01      0.1785182496E+00
          0                10           2             4    7     1      -0.1197354020E-02       5    8    1        -0.6789749385E-01      0.1663132297E+00
                                                   Max.-Head-Change                         Max.-Flux-Residual
  Residual-Control   Outer-Iter.   Inner-Iter.     Column Row Layer    Maximum-Head-Change  Column Row Layer    Maximum-Flux-Residual          L2-NORM 
          0                11           2             4    7     1      -0.1360834646E-02       5    8    1        -0.7716691293E-01      0.1890186472E+00
          0                12           2             4    7     1      -0.1365093537E-02       5    8    1        -0.7740777273E-01      0.1896084996E+00
          0                13           2             4    7     1      -0.1204119701E-02       5    8    1        -0.6827917315E-01      0.1672480930E+00
          0                14           2             4    7     1      -0.1246756157E-02       5    8    1        -0.7069600363E-01      0.1731682195E+00
          0                15           2             4    7     1      -0.1338244748E-02       5    8    1        -0.7588299170E-01      0.1858736539E+00
          0                16           2             4    7     1      -0.1325740139E-02       5    8    1        -0.7517327010E-01      0.1841351282E+00
          0                17           2             4    7     1      -0.1369503747E-02       5    8    1        -0.7765398016E-01      0.1902116142E+00
          0                18           2             4    7     1      -0.1338029922E-02       5    8    1        -0.7586864745E-01      0.1858384257E+00
          0                19           2             4    7     1      -0.1372753138E-02       5    8    1        -0.7783669443E-01      0.1906591622E+00
          0                20           2             4    7     1      -0.1373384702E-02       5    8    1        -0.7787176121E-01      0.1907450297E+00
                                                   Max.-Head-Change                         Max.-Flux-Residual
  Residual-Control   Outer-Iter.   Inner-Iter.     Column Row Layer    Maximum-Head-Change  Column Row Layer    Maximum-Flux-Residual          L2-NORM 
          0                21           2             4    7     1      -0.1359559120E-02       5    8    1        -0.7708708908E-01      0.1888229842E+00
          0                22           2             4    7     1      -0.1352360995E-02       5    8    1        -0.7667819142E-01      0.1878214045E+00
          0                23           2             4    7     1      -0.1376279253E-02       5    8    1        -0.7803355071E-01      0.1911413481E+00
          0                24           2             4    7     1      -0.1396585185E-02       5    8    1        -0.7918409577E-01      0.1939595773E+00
          0                25           2             4    7     1      -0.1398502264E-02       5    8    1        -0.7929201988E-01      0.1942239212E+00
          0                26           2             4    7     1      -0.1411833231E-02       5    8    1        -0.8004705609E-01      0.1960733736E+00
          0                27           2             4    7     1      -0.1413621137E-02       5    8    1        -0.8014764144E-01      0.1963197460E+00
          0                28           2             4    7     1      -0.1412900038E-02       5    8    1        -0.8010596669E-01      0.1962176631E+00
          0                29           2             4    7     1      -0.4366753486E-03       5    8    1        -0.2475826016E-01      0.6064406551E-01
          0                30           1             4    7     1       0.4721389409E-05       4    7    1         0.2750943688E-03      0.6739294029E-03

    ------------------------------------------------
       NWT REQUIRED           30 OUTER ITERATIONS 
       AND A TOTAL OF         59 INNER ITERATIONS.
    ------------------------------------------------

 NO OUTPUT CONTROL FOR STRESS PERIOD   21   TIME STEP    4
 
 SOLVING FOR HEAD 
                                                   Max.-Head-Change                         Max.-Flux-Residual
  Residual-Control   Outer-Iter.   Inner-Iter.     Column Row Layer    Maximum-Head-Change  Column Row Layer    Maximum-Flux-Residual          L2-NORM 
          0                 1           2             5    8     1       0.6880650537E-01       5    8    1         0.3749371995E+01      0.8841285115E+01
          0                 2           2             5    7     1      -0.9012783404E-01       5    8    1        -0.4963102146E+01      0.1202265848E+02
          0                 3           2             5    7     1       0.6136774012E-02       5    8    1         0.3473839360E+00      0.8425508759E+00
          0                 4           2             4    7     1      -0.1621275621E-02       5    8    1        -0.9236736384E-01      0.2258495078E+00
          0                 5           2             4    7     1      -0.1135158144E-02       4    7    1        -0.6437290988E-01      0.1576737890E+00
          0                 6           2             4    7     1      -0.1189626836E-02       5    8    1        -0.6746180134E-01      0.1652460554E+00
          0                 7           2             4    7     1      -0.1270955236E-02       5    8    1        -0.7207299877E-01      0.1765411597E+00
          0                 8           2             4    7     1      -0.1403119298E-02       5    8    1        -0.7956690822E-01      0.1948973497E+00
          0                 9           2             4    7     1      -0.1325103999E-02       5    8    1        -0.7514228649E-01      0.1840591843E+00
          0                10           2             4    7     1      -0.1273505793E-02       5    8    1        -0.7221558484E-01      0.1768903244E+00
                                                   Max.-Head-Change                         Max.-Flux-Residual
  Residual-Control   Outer-Iter.   Inner-Iter.     Column Row Layer    Maximum-Head-Change  Column Row Layer    Maximum-Flux-Residual          L2-NORM 
          0                11           2             4    7     1      -0.1246916793E-02       5    8    1        -0.7070711003E-01      0.1731953689E+00
          0                12           2             4    7     1      -0.1249500634E-02       5    8    1        -0.7085290710E-01      0.1735525165E+00
          0                13           2             4    7     1      -0.1289630437E-02       5    8    1        -0.7312771738E-01      0.1791246377E+00
          0                14           2             4    7     1      -0.1383496924E-02       5    8    1        -0.7844954870E-01      0.1921603764E+00
          0                15           2             4    7     1      -0.1366859162E-02       5    8    1        -0.7750543772E-01      0.1898477144E+00
          0                16           2             4    7     1      -0.1409010016E-02       5    8    1        -0.7989469434E-01      0.1957001894E+00
          0                17           2             4    7     1      -0.1371098905E-02       5    8    1        -0.7774432102E-01      0.1904328389E+00
          0                18           2             4    7     1      -0.1401329023E-02       5    8    1        -0.7945759719E-01      0.1946295219E+00
          0                19           2             4    7     1      -0.1393844151E-02       5    8    1        -0.7903244033E-01      0.1935880797E+00
          0                20           2             4    7     1      -0.1368256369E-02       5    8    1        -0.7758083060E-01      0.1900323838E+00
                                                   Max.-Head-Change                         Max.-Flux-Residual
  Residual-Control   Outer-Iter.   Inner-Iter.     Column Row Layer    Maximum-Head-Change  Column Row Layer    Maximum-Flux-Residual          L2-NORM 
          0                21           2             4    7     1      -0.1344851654E-02       5    8    1        -0.7625301543E-01      0.1867799343E+00
          0                22           2             4    7     1      -0.1346093960E-02       5    8    1        -0.7632268161E-01      0.1869505983E+00
          0                23           2             4    7     1      -0.1399095356E-02       5    8    1        -0.7932700649E-01      0.1943096590E+00
          0                24           2             4    7     1      -0.1373006945E-02       5    8    1        -0.7784711301E-01      0.1906846340E+00
          0                25           2             4    7     1      -0.1399414407E-02       5    8    1        -0.7934354504E-01      0.1943501507E+00
          0                26           2             4    7     1      -0.1394675862E-02       5    8    1        -0.7907412248E-01      0.1936901814E+00
          0                27           2             4    7     1      -0.1409404746E-02       5    8    1        -0.7990840258E-01      0.1957337464E+00
          0                28           2             4    7     1      -0.8450116027E-03       5    8    1        -0.4790919114E-01      0.1173520068E+00
          0                29           1             4    7     1       0.9250086096E-05       4    7    1         0.5389629498E-03      0.1320417656E-02

    ------------------------------------------------
       NWT REQUIRED           29 OUTER ITERATIONS 
       AND A TOTAL OF         57 INNER ITERATIONS.
    ------------------------------------------------

 NO OUTPUT CONTROL FOR STRESS PERIOD   21   TIME STEP    5
 
 SOLVING FOR HEAD 
                                                   Max.-Head-Change                         Max.-Flux-Residual
  Residual-Control   Outer-Iter.   Inner-Iter.     Column Row Layer    Maximum-Head-Change  Column Row Layer    Maximum-Flux-Residual          L2-NORM 
          0                 1           2             5    8     1       0.6917405442E-01       5    8    1         0.3768504745E+01      0.8912247491E+01
          0                 2           2             5    7     1      -0.9068924530E-01       5    8    1        -0.4991788819E+01      0.1209596105E+02
          0                 3           2             5    7     1       0.6174994904E-02       5    8    1         0.3493915120E+00      0.8476698048E+00
          0                 4           2             4    7     1      -0.1488906207E-02       5    8    1        -0.8485250426E-01      0.2074529885E+00
          0                 5           2             4    7     1      -0.1287966465E-02       4    7    1        -0.7303822580E-01      0.1788994139E+00
          0                 6           2             4    7     1      -0.1396294674E-02       5    8    1        -0.7918139176E-01      0.1939529470E+00
          0                 7           2             4    7     1      -0.1261271325E-02       5    8    1        -0.7152384938E-01      0.1751958676E+00
          0                 8           2             4    7     1      -0.1409585648E-02       5    8    1        -0.7993340779E-01      0.1957951007E+00
          0                 9           2             4    7     1      -0.1357315083E-02       5    8    1        -0.7696868702E-01      0.1885329276E+00
          0                10           2             4    7     1      -0.1337940882E-02       5    8    1        -0.7586926266E-01      0.1858399450E+00
                                                   Max.-Head-Change                         Max.-Flux-Residual
  Residual-Control   Outer-Iter.   Inner-Iter.     Column Row Layer    Maximum-Head-Change  Column Row Layer    Maximum-Flux-Residual          L2-NORM 
          0                11           2             4    7     1      -0.1354904757E-02       5    8    1        -0.7683043101E-01      0.1881943301E+00
          0                12           2             4    7     1      -0.1209898955E-02       5    8    1        -0.6860725496E-01      0.1680517330E+00
          0                13           2             4    7     1      -0.1269030949E-02       5    8    1        -0.7195946313E-01      0.1762630456E+00
          0                14           2             4    7     1      -0.1386167921E-02       5    8    1        -0.7860082008E-01      0.1925309289E+00
          0                15           2             4    7     1      -0.1412222286E-02       5    8    1        -0.8007747485E-01      0.1961478897E+00
          0                16           2             4    7     1      -0.1350424145E-02       5    8    1        -0.7657262696E-01      0.1875627849E+00
          0                17           2             4    7     1      -0.1348413747E-02       5    8    1        -0.7645783043E-01      0.1872816410E+00
          0                18           2             4    7     1      -0.1292405582E-02       5    8    1        -0.7328136828E-01      0.1795009298E+00
          0                19           2             4    7     1      -0.1304341359E-02       5    8    1        -0.7395736272E-01      0.1811568150E+00
          0                20           2             4    7     1      -0.1405073338E-02       5    8    1        -0.7966811025E-01      0.1951452201E+00
                                                   Max.-Head-Change                         Max.-Flux-Residual
  Residual-Control   Outer-Iter.   Inner-Iter.     Column Row Layer    Maximum-Head-Change  Column Row Layer    Maximum-Flux-Residual          L2-NORM 
          0                21           2             4    7     1      -0.1362160747E-02       5    8    1        -0.7723429230E-01      0.1891835302E+00
          0                22           2             4    7     1      -0.1361063113E-02       5    8    1        -0.7717125898E-01      0.1890291675E+00
          0                23           2             4    7     1      -0.1367048423E-02       5    8    1        -0.7750985134E-01      0.1898585453E+00
          0                24           2             4    7     1      -0.1413841619E-02       5    8    1        -0.8016214223E-01      0.1963552994E+00
          0                25           2             4    7     1      -0.1408084218E-02       5    8    1        -0.7983495775E-01      0.1955538281E+00
          0                26           2             4    7     1      -0.1413398025E-02       5    8    1        -0.8013543551E-01      0.1962898512E+00
          0                27           2             4    7     1      -0.1559730468E-02       5    8    1        -0.8843107163E-01      0.2166099207E+00
          0                28           1             4    7     1       0.1588242215E-04       4    7    1         0.9253990352E-03      0.2267393677E-02

    ------------------------------------------------
       NWT REQUIRED           28 OUTER ITERATIONS 
       AND A TOTAL OF         55 INNER ITERATIONS.
    ------------------------------------------------

 NO OUTPUT CONTROL FOR STRESS PERIOD   21   TIME STEP    6
 
 SOLVING FOR HEAD 
                                                   Max.-Head-Change                         Max.-Flux-Residual
  Residual-Control   Outer-Iter.   Inner-Iter.     Column Row Layer    Maximum-Head-Change  Column Row Layer    Maximum-Flux-Residual          L2-NORM 
          0                 1           2             5    8     1       0.6954051547E-01       5    8    1         0.3787605446E+01      0.8982185852E+01
          0                 2           2             5    7     1      -0.9123410263E-01       5    8    1        -0.5019658803E+01      0.1216714289E+02
          0                 3           2             5    7     1       0.6212088548E-02       5    8    1         0.3513419200E+00      0.8526407021E+00
          0                 4           2             4    7     1      -0.1372307052E-02       5    8    1        -0.7823223722E-01      0.1912474884E+00
          0                 5           2             4    7     1      -0.1145818791E-02       4    7    1        -0.6497715895E-01      0.1591539589E+00
          0                 6           2             4    7     1      -0.1214092276E-02       5    8    1        -0.6884889897E-01      0.1686437231E+00
          0                 7           2             4    7     1      -0.1320506012E-02       5    8    1        -0.7488257756E-01      0.1834231751E+00
          0                 8           2             4    7     1      -0.1213892713E-02       5    8    1        -0.6883627384E-01      0.1686127355E+00
          0                 9           2             4    7     1      -0.1370535718E-02       5    8    1        -0.7771806184E-01      0.1903686689E+00
          0                10           2             4    7     1      -0.1350851620E-02       5    8    1        -0.7660122415E-01      0.1876328603E+00
                                                   Max.-Head-Change                         Max.-Flux-Residual
  Residual-Control   Outer-Iter.   Inner-Iter.     Column Row Layer    Maximum-Head-Change  Column Row Layer    Maximum-Flux-Residual          L2-NORM 
          0                11           2             4    7     1      -0.1371704499E-02       5    8    1        -0.7778290063E-01      0.1905273850E+00
          0                12           2             4    7     1      -0.1229121187E-02       5    8    1        -0.6969710053E-01      0.1707212856E+00
          0                13           2             4    7     1      -0.1295723539E-02       5    8    1        -0.7347288769E-01      0.1799701487E+00
          0                14           2             4    7     1      -0.1239271230E-02       5    8    1        -0.7027120569E-01      0.1721276056E+00
          0                15           2             4    7     1      -0.1390563500E-02       5    8    1        -0.7884909177E-01      0.1931390942E+00
          0                16           2             4    7     1      -0.1314391399E-02       5    8    1        -0.7452933346E-01      0.1825577712E+00
          0                17           2             4    7     1      -0.1293315062E-02       5    8    1        -0.7333348061E-01      0.1796286066E+00
          0                18           2             4    7     1      -0.1335465170E-02       5    8    1        -0.7572268089E-01      0.1854809415E+00
          0                19           2             4    7     1      -0.1347599119E-02       5    8    1        -0.7640996012E-01      0.1871643912E+00
          0                20           2             4    7     1      -0.1349487270E-02       5    8    1        -0.7651626946E-01      0.1874247867E+00
                                                   Max.-Head-Change                         Max.-Flux-Residual
  Residual-Control   Outer-Iter.   Inner-Iter.     Column Row Layer    Maximum-Head-Change  Column Row Layer    Maximum-Flux-Residual          L2-NORM 
          0                21           2             4    7     1      -0.1363945063E-02       5    8    1        -0.7733525585E-01      0.1894308842E+00
          0                22           2             4    7     1      -0.1343154894E-02       5    8    1        -0.7615573215E-01      0.1865416420E+00
          0                23           2             4    7     1      -0.1384110212E-02       5    8    1        -0.7847704158E-01      0.1922276819E+00
          0                24           2             4    7     1      -0.1414743720E-02       5    8    1        -0.8021313364E-01      0.1964801885E+00
          0                25           2             4    7     1      -0.1395628344E-02       5    8    1        -0.7912858257E-01      0.1938235694E+00
          0                26           2             4    7     1      -0.1412930726E-02       5    8    1        -0.8010876362E-01      0.1962245285E+00
          0                27           2             4    7     1      -0.1410151054E-02       5    8    1        -0.7995038966E-01      0.1958365790E+00
          0                28           2             4    7     1      -0.4210881342E-03       5    8    1        -0.2387462616E-01      0.5847961739E-01
          0                29           1             4    7     1       0.4635871112E-05       4    7    1         0.2701130354E-03      0.6617145222E-03

    ------------------------------------------------
       NWT REQUIRED           29 OUTER ITERATIONS 
       AND A TOTAL OF         57 INNER ITERATIONS.
    ------------------------------------------------

 NO OUTPUT CONTROL FOR STRESS PERIOD   21   TIME STEP    7
 
 SOLVING FOR HEAD 
                                                   Max.-Head-Change                         Max.-Flux-Residual
  Residual-Control   Outer-Iter.   Inner-Iter.     Column Row Layer    Maximum-Head-Change  Column Row Layer    Maximum-Flux-Residual          L2-NORM 
          0                 1           2             5    8     1       0.6990544688E-01       5    8    1         0.3806648543E+01      0.9051090788E+01
          0                 2           2             5    7     1      -0.9176327883E-01       5    8    1        -0.5046755319E+01      0.1223631701E+02
          0                 3           2             5    7     1       0.6248122936E-02       5    8    1         0.3532386625E+00      0.8574725530E+00
          0                 4           2             4    7     1      -0.1552697606E-02       5    8    1        -0.8845404787E-01      0.2162903860E+00
          0                 5           2             4    7     1      -0.1389354024E-02       4    7    1        -0.7878738522E-01      0.1929822598E+00
          0                 6           2             4    7     1      -0.1252595713E-02       5    8    1        -0.7103235514E-01      0.1739918931E+00
          0                 7           2             4    7     1      -0.1396195683E-02       5    8    1        -0.7917455438E-01      0.1939363049E+00
          0                 8           2             4    7     1      -0.1335594632E-02       5    8    1        -0.7573743223E-01      0.1855169922E+00
          0                 9           2             4    7     1      -0.1304965289E-02       5    8    1        -0.7399977833E-01      0.1812606794E+00
          0                10           2             4    7     1      -0.1305817210E-02       5    8    1        -0.7404733377E-01      0.1813771877E+00
                                                   Max.-Head-Change                         Max.-Flux-Residual
  Residual-Control   Outer-Iter.   Inner-Iter.     Column Row Layer    Maximum-Head-Change  Column Row Layer    Maximum-Flux-Residual          L2-NORM 
          0                11           2             4    7     1      -0.1347406530E-02       5    8    1        -0.7640490288E-01      0.1871520271E+00
          0                12           2             4    7     1      -0.1242173439E-02       5    8    1        -0.7043705138E-01      0.1725338050E+00
          0                13           2             4    7     1      -0.1347058568E-02       5    8    1        -0.7638361200E-01      0.1870999265E+00
          0                14           2             4    7     1      -0.1351094573E-02       5    8    1        -0.7661179101E-01      0.1876587631E+00
          0                15           2             4    7     1      -0.1258656346E-02       5    8    1        -0.7136958032E-01      0.1748180234E+00
          0                16           2             4    7     1      -0.1353023669E-02       5    8    1        -0.7671958905E-01      0.1879228860E+00
          0                17           2             4    7     1      -0.1404369353E-02       5    8    1        -0.7963026035E-01      0.1950524680E+00
          0                18           2             4    7     1      -0.1310515682E-02       5    8    1        -0.7430795461E-01      0.1820154990E+00
          0                19           2             4    7     1      -0.1397657394E-02       5    8    1        -0.7924808101E-01      0.1941163617E+00
          0                20           2             4    7     1      -0.1324997713E-02       5    8    1        -0.7512760390E-01      0.1840232251E+00
                                                   Max.-Head-Change                         Max.-Flux-Residual
  Residual-Control   Outer-Iter.   Inner-Iter.     Column Row Layer    Maximum-Head-Change  Column Row Layer    Maximum-Flux-Residual          L2-NORM 
          0                21           2             4    7     1      -0.1357694029E-02       5    8    1        -0.7698064740E-01      0.1885622954E+00
          0                22           2             4    7     1      -0.1389493465E-02       5    8    1        -0.7878288660E-01      0.1929768334E+00
          0                23           2             4    7     1      -0.1409176957E-02       5    8    1        -0.7989813951E-01      0.1957086104E+00
          0                24           2             4    7     1      -0.1379303098E-02       5    8    1        -0.7820359973E-01      0.1915578384E+00
          0                25           2             4    7     1      -0.1412201730E-02       5    8    1        -0.8006804437E-01      0.1961247997E+00
          0                26           2             4    7     1      -0.1409171013E-02       5    8    1        -0.7989544831E-01      0.1957020008E+00
          0                27           2             4    7     1      -0.6390357928E-03       5    8    1        -0.3623146083E-01      0.8874753699E-01
          0                28           1             4    7     1       0.7114261804E-05       4    7    1         0.4145204855E-03      0.1015509763E-02

    ------------------------------------------------
       NWT REQUIRED           28 OUTER ITERATIONS 
       AND A TOTAL OF         55 INNER ITERATIONS.
    ------------------------------------------------

 NO OUTPUT CONTROL FOR STRESS PERIOD   21   TIME STEP    8
 
 SOLVING FOR HEAD 
                                                   Max.-Head-Change                         Max.-Flux-Residual
  Residual-Control   Outer-Iter.   Inner-Iter.     Column Row Layer    Maximum-Head-Change  Column Row Layer    Maximum-Flux-Residual          L2-NORM 
          0                 1           2             5    8     1       0.7026862840E-01       5    8    1         0.3825619868E+01      0.9118971682E+01
          0                 2           2             5    7     1      -0.9227766785E-01       5    8    1        -0.5073120821E+01      0.1230359420E+02
          0                 3           2             5    7     1       0.6283158938E-02       5    8    1         0.3550847109E+00      0.8621730916E+00
          0                 4           2             4    7     1      -0.1432415585E-02       5    8    1        -0.8162542621E-01      0.1995737548E+00
          0                 5           2             4    7     1      -0.1237027613E-02       4    7    1        -0.7014913074E-01      0.1718229795E+00
          0                 6           2             4    7     1      -0.1357352701E-02       5    8    1        -0.7697256772E-01      0.1885424980E+00
          0                 7           2             4    7     1      -0.1257459886E-02       5    8    1        -0.7130724038E-01      0.1746653150E+00
          0                 8           2             4    7     1      -0.1177859175E-02       5    8    1        -0.6679261775E-01      0.1636068751E+00
          0                 9           2             4    7     1      -0.1344813896E-02       5    8    1        -0.7625914644E-01      0.1867950970E+00
          0                10           2             4    7     1      -0.1356852293E-02       5    8    1        -0.7694115562E-01      0.1884655380E+00
                                                   Max.-Head-Change                         Max.-Flux-Residual
  Residual-Control   Outer-Iter.   Inner-Iter.     Column Row Layer    Maximum-Head-Change  Column Row Layer    Maximum-Flux-Residual          L2-NORM 
          0                11           2             4    7     1      -0.1204846142E-02       5    8    1        -0.6832098895E-01      0.1673505265E+00
          0                12           2             4    7     1      -0.1258582776E-02       5    8    1        -0.7136726988E-01      0.1748124785E+00
          0                13           2             4    7     1      -0.1367841830E-02       5    8    1        -0.7756194969E-01      0.1899862349E+00
          0                14           2             4    7     1      -0.1379617607E-02       5    8    1        -0.7822898043E-01      0.1916200361E+00
          0                15           2             4    7     1      -0.1296019721E-02       5    8    1        -0.7348803621E-01      0.1800071373E+00
          0                16           2             4    7     1      -0.1409633210E-02       5    8    1        -0.7992930667E-01      0.1957850274E+00
          0                17           2             4    7     1      -0.1350582973E-02       5    8    1        -0.7658039730E-01      0.1875818175E+00
          0                18           2             4    7     1      -0.1368208431E-02       5    8    1        -0.7757896297E-01      0.1900278435E+00
          0                19           2             4    7     1      -0.1376316949E-02       5    8    1        -0.7803796263E-01      0.1911521425E+00
          0                20           2             4    7     1      -0.1401232618E-02       5    8    1        -0.7944989725E-01      0.1946106559E+00
                                                   Max.-Head-Change                         Max.-Flux-Residual
  Residual-Control   Outer-Iter.   Inner-Iter.     Column Row Layer    Maximum-Head-Change  Column Row Layer    Maximum-Flux-Residual          L2-NORM 
          0                21           2             4    7     1      -0.1395951233E-02       5    8    1        -0.7914968200E-01      0.1938752625E+00
          0                22           2             4    7     1      -0.1399870860E-02       5    8    1        -0.7937113013E-01      0.1944177023E+00
          0                23           2             4    7     1      -0.1401191403E-02       5    8    1        -0.7944521986E-01      0.1945991811E+00
          0                24           2             4    7     1      -0.1398626144E-02       5    8    1        -0.7929899233E-01      0.1942409975E+00
          0                25           2             4    7     1      -0.1396817301E-02       5    8    1        -0.7919565101E-01      0.1939878660E+00
          0                26           2             4    7     1      -0.1414578207E-02       5    8    1        -0.8020183762E-01      0.1964525109E+00
          0                27           2             4    7     1      -0.4642474392E-03       5    8    1        -0.2632169976E-01      0.6447368974E-01
          0                28           1             4    7     1       0.5181791437E-05       4    7    1         0.3019232940E-03      0.7396421646E-03

    ------------------------------------------------
       NWT REQUIRED           28 OUTER ITERATIONS 
       AND A TOTAL OF         55 INNER ITERATIONS.
    ------------------------------------------------

 NO OUTPUT CONTROL FOR STRESS PERIOD   21   TIME STEP    9
 
 SOLVING FOR HEAD 
                                                   Max.-Head-Change                         Max.-Flux-Residual
  Residual-Control   Outer-Iter.   Inner-Iter.     Column Row Layer    Maximum-Head-Change  Column Row Layer    Maximum-Flux-Residual          L2-NORM 
          0                 1           2             5    8     1       0.7062958372E-01       5    8    1         0.3844491962E+01      0.9185819053E+01
          0                 2           2             5    7     1      -0.9277801332E-01       5    8    1        -0.5098790231E+01      0.1236906752E+02
          0                 3           2             5    7     1       0.6317221529E-02       5    8    1         0.3568810795E+00      0.8667453537E+00
          0                 4           2             4    7     1      -0.1613264806E-02       5    8    1        -0.9187364913E-01      0.2246810257E+00
          0                 5           2             4    7     1      -0.1187918594E-02       4    7    1        -0.6736414134E-01      0.1650014751E+00
          0                 6           2             4    7     1      -0.1306659555E-02       5    8    1        -0.7409770933E-01      0.1815006081E+00
          0                 7           2             4    7     1      -0.1214051890E-02       5    8    1        -0.6884554446E-01      0.1686354545E+00
          0                 8           2             4    7     1      -0.1384953643E-02       5    8    1        -0.7853593158E-01      0.1923720318E+00
          0                 9           2             4    7     1      -0.1389476237E-02       5    8    1        -0.7879174097E-01      0.1929984972E+00
          0                10           2             4    7     1      -0.1219369625E-02       5    8    1        -0.6914509960E-01      0.1693691527E+00
                                                   Max.-Head-Change                         Max.-Flux-Residual
  Residual-Control   Outer-Iter.   Inner-Iter.     Column Row Layer    Maximum-Head-Change  Column Row Layer    Maximum-Flux-Residual          L2-NORM 
          0                11           2             4    7     1      -0.1261494477E-02       5    8    1        -0.7153294588E-01      0.1752182898E+00
          0                12           2             4    7     1      -0.1354250684E-02       5    8    1        -0.7679189251E-01      0.1880999861E+00
          0                13           2             4    7     1      -0.1336577920E-02       5    8    1        -0.7578910021E-01      0.1856435859E+00
          0                14           2             4    7     1      -0.1375512020E-02       5    8    1        -0.7799599728E-01      0.1910493738E+00
          0                15           2             4    7     1      -0.1331882627E-02       5    8    1        -0.7552138235E-01      0.1849877994E+00
          0                16           2             4    7     1      -0.1351462490E-02       5    8    1        -0.7663080771E-01      0.1877053606E+00
          0                17           2             4    7     1      -0.1326344740E-02       5    8    1        -0.7520586766E-01      0.1842149682E+00
          0                18           2             4    7     1      -0.1383322798E-02       5    8    1        -0.7843577763E-01      0.1921266191E+00
          0                19           2             4    7     1      -0.1351922538E-02       5    8    1        -0.7665465862E-01      0.1877637414E+00
          0                20           2             4    7     1      -0.1344150434E-02       5    8    1        -0.7621320319E-01      0.1866824274E+00
                                                   Max.-Head-Change                         Max.-Flux-Residual
  Residual-Control   Outer-Iter.   Inner-Iter.     Column Row Layer    Maximum-Head-Change  Column Row Layer    Maximum-Flux-Residual          L2-NORM 
          0                21           2             4    7     1      -0.1387006716E-02       5    8    1        -0.7864233688E-01      0.1926325699E+00
          0                22           2             4    7     1      -0.1399391508E-02       5    8    1        -0.7934378497E-01      0.1943507259E+00
          0                23           2             4    7     1      -0.1385549080E-02       5    8    1        -0.7855817710E-01      0.1924263794E+00
          0                24           2             4    7     1      -0.1409931812E-02       5    8    1        -0.7993981572E-01      0.1958106999E+00
          0                25           2             4    7     1      -0.1411998326E-02       5    8    1        -0.8005620768E-01      0.1960957813E+00
          0                26           2             4    7     1      -0.1322551880E-02       5    8    1        -0.7498417713E-01      0.1836718949E+00
          0                27           1             4    7     1       0.1485590625E-04       4    7    1         0.8655981871E-03      0.2120646971E-02

    ------------------------------------------------
       NWT REQUIRED           27 OUTER ITERATIONS 
       AND A TOTAL OF         53 INNER ITERATIONS.
    ------------------------------------------------

 NO OUTPUT CONTROL FOR STRESS PERIOD   21   TIME STEP   10
 
 SOLVING FOR HEAD 
                                                   Max.-Head-Change                         Max.-Flux-Residual
  Residual-Control   Outer-Iter.   Inner-Iter.     Column Row Layer    Maximum-Head-Change  Column Row Layer    Maximum-Flux-Residual          L2-NORM 
          0                 1           2             5    8     1       0.7098804338E-01       5    8    1         0.3863248384E+01      0.9251648513E+01
          0                 2           2             5    7     1      -0.9326508439E-01       5    8    1        -0.5123799577E+01      0.1243283235E+02
          0                 3           2             5    7     1       0.6350397304E-02       5    8    1         0.3586321975E+00      0.8712007137E+00
          0                 4           2             4    7     1      -0.1489971760E-02       5    8    1        -0.8487472864E-01      0.2075465795E+00
          0                 5           2             4    7     1      -0.1328748707E-02       4    7    1        -0.7535011691E-01      0.1845630559E+00
          0                 6           2             4    7     1      -0.1221469152E-02       5    8    1        -0.6926678279E-01      0.1696671914E+00
          0                 7           2             4    7     1      -0.1380916835E-02       5    8    1        -0.7830764139E-01      0.1918128333E+00
          0                 8           2             4    7     1      -0.1358761873E-02       5    8    1        -0.7705067596E-01      0.1887337801E+00
          0                 9           2             4    7     1      -0.1377257339E-02       5    8    1        -0.7809868198E-01      0.1913008825E+00
          0                10           2             4    7     1      -0.1226481930E-02       5    8    1        -0.6954825326E-01      0.1703566819E+00
                                                   Max.-Head-Change                         Max.-Flux-Residual
  Residual-Control   Outer-Iter.   Inner-Iter.     Column Row Layer    Maximum-Head-Change  Column Row Layer    Maximum-Flux-Residual          L2-NORM 
          0                11           2             4    7     1      -0.1287752558E-02       5    8    1        -0.7302174882E-01      0.1788650912E+00
          0                12           2             4    7     1      -0.1410370455E-02       5    8    1        -0.7997394787E-01      0.1958943772E+00
          0                13           2             4    7     1      -0.1259692755E-02       5    8    1        -0.7142936968E-01      0.1749644289E+00
          0                14           2             4    7     1      -0.1299784979E-02       5    8    1        -0.7370187348E-01      0.1805310246E+00
          0                15           2             4    7     1      -0.1410750266E-02       5    8    1        -0.7999311900E-01      0.1959413283E+00
          0                16           2             4    7     1      -0.1346697959E-02       5    8    1        -0.7636055949E-01      0.1870433266E+00
          0                17           2             4    7     1      -0.1357885962E-02       5    8    1        -0.7699412110E-01      0.1885952826E+00
          0                18           2             4    7     1      -0.1355489027E-02       5    8    1        -0.7685746343E-01      0.1882605301E+00
          0                19           2             4    7     1      -0.1363618454E-02       5    8    1        -0.7731763658E-01      0.1893877218E+00
          0                20           2             4    7     1      -0.1411552029E-02       5    8    1        -0.8003466716E-01      0.1960430533E+00
                                                   Max.-Head-Change                         Max.-Flux-Residual
  Residual-Control   Outer-Iter.   Inner-Iter.     Column Row Layer    Maximum-Head-Change  Column Row Layer    Maximum-Flux-Residual          L2-NORM 
          0                21           2             4    7     1      -0.1402140477E-02       5    8    1        -0.7950029018E-01      0.1947340653E+00
          0                22           2             4    7     1      -0.1387324891E-02       5    8    1        -0.7865948201E-01      0.1926745234E+00
          0                23           2             4    7     1      -0.1407127815E-02       5    8    1        -0.7978146739E-01      0.1954228260E+00
          0                24           2             4    7     1      -0.1398210701E-02       5    8    1        -0.7927512145E-01      0.1941825210E+00
          0                25           2             4    7     1      -0.1414649977E-02       5    8    1        -0.8020637567E-01      0.1964636261E+00
          0                26           2             4    7     1      -0.7482035036E-03       5    8    1        -0.4242094253E-01      0.1039085985E+00
          0                27           1             4    7     1       0.8436583189E-05       4    7    1         0.4915688448E-03      0.1204266182E-02

    ------------------------------------------------
       NWT REQUIRED           27 OUTER ITERATIONS 
       AND A TOTAL OF         53 INNER ITERATIONS.
    ------------------------------------------------

 NO OUTPUT CONTROL FOR STRESS PERIOD   21   TIME STEP   11
 
 SOLVING FOR HEAD 
                                                   Max.-Head-Change                         Max.-Flux-Residual
  Residual-Control   Outer-Iter.   Inner-Iter.     Column Row Layer    Maximum-Head-Change  Column Row Layer    Maximum-Flux-Residual          L2-NORM 
          0                 1           2             5    8     1       0.7134376022E-01       5    8    1         0.3881874449E+01      0.9316463177E+01
          0                 2           2             5    7     1      -0.9373951906E-01       5    8    1        -0.5148179814E+01      0.1249497016E+02
          0                 3           2             5    7     1       0.6382686933E-02       5    8    1         0.3603378475E+00      0.8755389674E+00
          0                 4           2             4    7     1      -0.1671051882E-02       5    8    1        -0.9513640732E-01      0.2326865342E+00
          0                 5           2             4    7     1      -0.1279687151E-02       4    7    1        -0.7256782331E-01      0.1777481486E+00
          0                 6           2             4    7     1      -0.1184203744E-02       5    8    1        -0.6715339922E-01      0.1644905259E+00
          0                 7           2             4    7     1      -0.1339819029E-02       5    8    1        -0.7597695707E-01      0.1861038738E+00
          0                 8           2             4    7     1      -0.1323506461E-02       5    8    1        -0.7505131062E-01      0.1838363867E+00
          0                 9           2             4    7     1      -0.1347317955E-02       5    8    1        -0.7640078494E-01      0.1871419278E+00
          0                10           2             4    7     1      -0.1209449979E-02       5    8    1        -0.6858230420E-01      0.1679906221E+00
                                                   Max.-Head-Change                         Max.-Flux-Residual
  Residual-Control   Outer-Iter.   Inner-Iter.     Column Row Layer    Maximum-Head-Change  Column Row Layer    Maximum-Flux-Residual          L2-NORM 
          0                11           2             4    7     1      -0.1278663000E-02       5    8    1        -0.7250617739E-01      0.1776022168E+00
          0                12           2             4    7     1      -0.1412944641E-02       5    8    1        -0.8011974777E-01      0.1962515191E+00
          0                13           2             4    7     1      -0.1285126126E-02       5    8    1        -0.7287137525E-01      0.1784966041E+00
          0                14           2             4    7     1      -0.1354284398E-02       5    8    1        -0.7679198942E-01      0.1881002115E+00
          0                15           2             4    7     1      -0.1359145465E-02       5    8    1        -0.7706691681E-01      0.1887735848E+00
          0                16           2             4    7     1      -0.1312687366E-02       5    8    1        -0.7443192592E-01      0.1823192009E+00
          0                17           2             4    7     1      -0.1340436299E-02       5    8    1        -0.7600453721E-01      0.1861713322E+00
          0                18           2             4    7     1      -0.1363040115E-02       5    8    1        -0.7728544584E-01      0.1893088813E+00
          0                19           2             4    7     1      -0.1408912665E-02       5    8    1        -0.7988564889E-01      0.1956780346E+00
          0                20           2             4    7     1      -0.1358647151E-02       5    8    1        -0.7703489022E-01      0.1886950961E+00
                                                   Max.-Head-Change                         Max.-Flux-Residual
  Residual-Control   Outer-Iter.   Inner-Iter.     Column Row Layer    Maximum-Head-Change  Column Row Layer    Maximum-Flux-Residual          L2-NORM 
          0                21           2             4    7     1      -0.1381721387E-02       5    8    1        -0.7834236148E-01      0.1918977739E+00
          0                22           2             4    7     1      -0.1408766681E-02       5    8    1        -0.7987501516E-01      0.1956519733E+00
          0                23           2             4    7     1      -0.1405669209E-02       5    8    1        -0.7969862639E-01      0.1952198906E+00
          0                24           2             4    7     1      -0.1412681197E-02       5    8    1        -0.8009539167E-01      0.1961917662E+00
          0                25           2             4    7     1      -0.1831117615E-02       5    8    1        -0.1038183399E+00      0.2543008749E+00
          0                26           1             4    7     1       0.1953208506E-04       4    7    1         0.1138061777E-02      0.2788330447E-02

    ------------------------------------------------
       NWT REQUIRED           26 OUTER ITERATIONS 
       AND A TOTAL OF         51 INNER ITERATIONS.
    ------------------------------------------------

 NO OUTPUT CONTROL FOR STRESS PERIOD   21   TIME STEP   12
 
 SOLVING FOR HEAD 
                                                   Max.-Head-Change                         Max.-Flux-Residual
  Residual-Control   Outer-Iter.   Inner-Iter.     Column Row Layer    Maximum-Head-Change  Column Row Layer    Maximum-Flux-Residual          L2-NORM 
          0                 1           2             5    8     1       0.7169668772E-01       5    8    1         0.3900366112E+01      0.9380275316E+01
          0                 2           2             5    7     1      -0.9420196448E-01       5    8    1        -0.5171962010E+01      0.1255556063E+02
          0                 3           2             5    7     1       0.6414211478E-02       5    8    1         0.3620044959E+00      0.8797760632E+00
          0                 4           2             4    7     1      -0.1545361401E-02       5    8    1        -0.8800194812E-01      0.2152194734E+00
          0                 5           2             4    7     1      -0.1143379102E-02       4    7    1        -0.6483801509E-01      0.1588140808E+00
          0                 6           2             4    7     1      -0.1270704368E-02       5    8    1        -0.7205833286E-01      0.1765052132E+00
          0                 7           2             4    7     1      -0.1206695322E-02       5    8    1        -0.6842794565E-01      0.1676125775E+00
          0                 8           2             4    7     1      -0.1402058441E-02       5    8    1        -0.7950539618E-01      0.1947467301E+00
          0                 9           2             4    7     1      -0.1225096648E-02       5    8    1        -0.6947013703E-01      0.1701653131E+00
          0                10           2             4    7     1      -0.1266491105E-02       5    8    1        -0.7181656156E-01      0.1759129998E+00
                                                   Max.-Head-Change                         Max.-Flux-Residual
  Residual-Control   Outer-Iter.   Inner-Iter.     Column Row Layer    Maximum-Head-Change  Column Row Layer    Maximum-Flux-Residual          L2-NORM 
          0                11           2             4    7     1      -0.1358920290E-02       5    8    1        -0.7705698253E-01      0.1887493177E+00
          0                12           2             4    7     1      -0.1337678716E-02       5    8    1        -0.7585181998E-01      0.1857972140E+00
          0                13           2             4    7     1      -0.1372377573E-02       5    8    1        -0.7781857244E-01      0.1906147730E+00
          0                14           2             4    7     1      -0.1320401664E-02       5    8    1        -0.7487068052E-01      0.1833939148E+00
          0                15           2             4    7     1      -0.1328415045E-02       5    8    1        -0.7532427198E-01      0.1845050241E+00
          0                16           2             4    7     1      -0.1415537755E-02       5    8    1        -0.8026348710E-01      0.1966035718E+00
          0                17           2             4    7     1      -0.1376899767E-02       5    8    1        -0.7807196375E-01      0.1912353905E+00
          0                18           2             4    7     1      -0.1335386991E-02       5    8    1        -0.7571738694E-01      0.1854679124E+00
          0                19           2             4    7     1      -0.1398050963E-02       5    8    1        -0.7926961833E-01      0.1941690970E+00
          0                20           2             4    7     1      -0.1374902690E-02       5    8    1        -0.7795640207E-01      0.1909523372E+00
                                                   Max.-Head-Change                         Max.-Flux-Residual
  Residual-Control   Outer-Iter.   Inner-Iter.     Column Row Layer    Maximum-Head-Change  Column Row Layer    Maximum-Flux-Residual          L2-NORM 
          0                21           2             4    7     1      -0.1374989300E-02       5    8    1        -0.7796052233E-01      0.1909624500E+00
          0                22           2             4    7     1      -0.1389226619E-02       5    8    1        -0.7876697577E-01      0.1929378483E+00
          0                23           2             4    7     1      -0.1383493026E-02       5    8    1        -0.7844112886E-01      0.1921396787E+00
          0                24           2             4    7     1      -0.1399344525E-02       5    8    1        -0.7933907449E-01      0.1943391920E+00
          0                25           2             4    7     1      -0.1664564890E-02       5    8    1        -0.9437524662E-01      0.2311701260E+00
          0                26           1             4    7     1       0.1786990238E-04       4    7    1         0.1041211443E-02      0.2551017864E-02

    ------------------------------------------------
       NWT REQUIRED           26 OUTER ITERATIONS 
       AND A TOTAL OF         51 INNER ITERATIONS.
    ------------------------------------------------

 NO OUTPUT CONTROL FOR STRESS PERIOD   21   TIME STEP   13
 
 SOLVING FOR HEAD 
                                                   Max.-Head-Change                         Max.-Flux-Residual
  Residual-Control   Outer-Iter.   Inner-Iter.     Column Row Layer    Maximum-Head-Change  Column Row Layer    Maximum-Flux-Residual          L2-NORM 
          0                 1           2             5    8     1       0.7204648921E-01       5    8    1         0.3918704562E+01      0.9443075319E+01
          0                 2           2             5    7     1      -0.9465294324E-01       5    8    1        -0.5195172417E+01      0.1261467264E+02
          0                 3           2             5    7     1       0.6444903867E-02       5    8    1         0.3636282582E+00      0.8839030142E+00
          0                 4           2             4    7     1      -0.1433695579E-02       5    8    1        -0.8166300659E-01      0.1997008567E+00
          0                 5           2             4    7     1      -0.1273526325E-02       4    7    1        -0.7221815789E-01      0.1768916822E+00
          0                 6           2             4    7     1      -0.1191837716E-02       5    8    1        -0.6758603400E-01      0.1655502598E+00
          0                 7           2             4    7     1      -0.1365181256E-02       5    8    1        -0.7741485721E-01      0.1896259894E+00
          0                 8           2             4    7     1      -0.1378823561E-02       5    8    1        -0.7818781822E-01      0.1915192097E+00
          0                 9           2             4    7     1      -0.1221618766E-02       5    8    1        -0.6927276674E-01      0.1696818799E+00
          0                10           2             4    7     1      -0.1277696830E-02       5    8    1        -0.7245183360E-01      0.1774690937E+00
                                                   Max.-Head-Change                         Max.-Flux-Residual
  Residual-Control   Outer-Iter.   Inner-Iter.     Column Row Layer    Maximum-Head-Change  Column Row Layer    Maximum-Flux-Residual          L2-NORM 
          0                11           2             4    7     1      -0.1392585524E-02       5    8    1        -0.7896578731E-01      0.1934249063E+00
          0                12           2             4    7     1      -0.1407209717E-02       5    8    1        -0.7979432919E-01      0.1954543230E+00
          0                13           2             4    7     1      -0.1322685190E-02       5    8    1        -0.7500078178E-01      0.1837125711E+00
          0                14           2             4    7     1      -0.1290377406E-02       5    8    1        -0.7316805722E-01      0.1792233979E+00
          0                15           2             4    7     1      -0.1318659189E-02       5    8    1        -0.7477093267E-01      0.1831496470E+00
          0                16           2             4    7     1      -0.1306558044E-02       5    8    1        -0.7408406842E-01      0.1814671572E+00
          0                17           2             4    7     1      -0.1379759972E-02       5    8    1        -0.7823390568E-01      0.1916321506E+00
          0                18           2             4    7     1      -0.1374290593E-02       5    8    1        -0.7792307404E-01      0.1908707140E+00
          0                19           2             4    7     1      -0.1405191449E-02       5    8    1        -0.7967435376E-01      0.1951604620E+00
          0                20           2             4    7     1      -0.1366471097E-02       5    8    1        -0.7747819412E-01      0.1897809676E+00
                                                   Max.-Head-Change                         Max.-Flux-Residual
  Residual-Control   Outer-Iter.   Inner-Iter.     Column Row Layer    Maximum-Head-Change  Column Row Layer    Maximum-Flux-Residual          L2-NORM 
          0                21           2             4    7     1      -0.1363460634E-02       5    8    1        -0.7730671011E-01      0.1893609506E+00
          0                22           2             4    7     1      -0.1388166350E-02       5    8    1        -0.7870669967E-01      0.1927902114E+00
          0                23           2             4    7     1      -0.1400565389E-02       5    8    1        -0.7940892874E-01      0.1945102948E+00
          0                24           2             4    7     1      -0.1403257152E-02       5    8    1        -0.7956076540E-01      0.1948822082E+00
          0                25           2             4    7     1      -0.1256973587E-02       5    8    1        -0.7126629714E-01      0.1745649937E+00
          0                26           1             4    7     1       0.1432380767E-04       4    7    1         0.8345976289E-03      0.2044668923E-02

    ------------------------------------------------
       NWT REQUIRED           26 OUTER ITERATIONS 
       AND A TOTAL OF         51 INNER ITERATIONS.
    ------------------------------------------------

 NO OUTPUT CONTROL FOR STRESS PERIOD   21   TIME STEP   14
 
 SOLVING FOR HEAD 
                                                   Max.-Head-Change                         Max.-Flux-Residual
  Residual-Control   Outer-Iter.   Inner-Iter.     Column Row Layer    Maximum-Head-Change  Column Row Layer    Maximum-Flux-Residual          L2-NORM 
          0                 1           2             5    8     1       0.7239316790E-01       5    8    1         0.3936888296E+01      0.9504903232E+01
          0                 2           2             5    7     1      -0.9509305568E-01       5    8    1        -0.5217838541E+01      0.1267237903E+02
          0                 3           2             5    7     1       0.6474864863E-02       5    8    1         0.3652143976E+00      0.8879329278E+00
          0                 4           2             4    7     1      -0.1598947947E-02       5    8    1        -0.9102763495E-01      0.2226428537E+00
          0                 5           2             4    7     1      -0.1228238616E-02       4    7    1        -0.6964989467E-01      0.1706010167E+00
          0                 6           2             4    7     1      -0.1410910394E-02       5    8    1        -0.8000870425E-01      0.1959795023E+00
          0                 7           2             4    7     1      -0.1177095172E-02       5    8    1        -0.6674928000E-01      0.1635005973E+00
          0                 8           2             4    7     1      -0.1387026177E-02       5    8    1        -0.7865265271E-01      0.1926579716E+00
          0                 9           2             4    7     1      -0.1252344681E-02       5    8    1        -0.7101495253E-01      0.1739493330E+00
          0                10           2             4    7     1      -0.1339233720E-02       5    8    1        -0.7594111909E-01      0.1860160386E+00
                                                   Max.-Head-Change                         Max.-Flux-Residual
  Residual-Control   Outer-Iter.   Inner-Iter.     Column Row Layer    Maximum-Head-Change  Column Row Layer    Maximum-Flux-Residual          L2-NORM 
          0                11           2             4    7     1      -0.1305836584E-02       5    8    1        -0.7404669711E-01      0.1813755992E+00
          0                12           2             4    7     1      -0.1322063058E-02       5    8    1        -0.7496602850E-01      0.1836275209E+00
          0                13           2             4    7     1      -0.1404294120E-02       5    8    1        -0.7962801133E-01      0.1950469851E+00
          0                14           2             4    7     1      -0.1280634462E-02       5    8    1        -0.7261553586E-01      0.1778699364E+00
          0                15           2             4    7     1      -0.1339877515E-02       5    8    1        -0.7597388850E-01      0.1860962852E+00
          0                16           2             4    7     1      -0.1374979757E-02       5    8    1        -0.7796351296E-01      0.1909697990E+00
          0                17           2             4    7     1      -0.1411365897E-02       5    8    1        -0.8002587147E-01      0.1960214992E+00
          0                18           2             4    7     1      -0.1385738109E-02       5    8    1        -0.7857201709E-01      0.1924602708E+00
          0                19           2             4    7     1      -0.1410556020E-02       5    8    1        -0.7997837505E-01      0.1959051510E+00
          0                20           2             4    7     1      -0.1393762796E-02       5    8    1        -0.7902545066E-01      0.1935709524E+00
                                                   Max.-Head-Change                         Max.-Flux-Residual
  Residual-Control   Outer-Iter.   Inner-Iter.     Column Row Layer    Maximum-Head-Change  Column Row Layer    Maximum-Flux-Residual          L2-NORM 
          0                21           2             4    7     1      -0.1388713434E-02       5    8    1        -0.7873836664E-01      0.1928677571E+00
          0                22           2             4    7     1      -0.1398794802E-02       5    8    1        -0.7930917307E-01      0.1942659449E+00
          0                23           2             4    7     1      -0.1413955237E-02       5    8    1        -0.8016794664E-01      0.1963694937E+00
          0                24           2             4    7     1      -0.1942284427E-02       5    8    1        -0.1101215189E+00      0.2697404453E+00
          0                25           1             4    7     1       0.2107848983E-04       4    7    1         0.1228171735E-02      0.3009058462E-02

    ------------------------------------------------
       NWT REQUIRED           25 OUTER ITERATIONS 
       AND A TOTAL OF         49 INNER ITERATIONS.
    ------------------------------------------------

 NO OUTPUT CONTROL FOR STRESS PERIOD   21   TIME STEP   15
 
 SOLVING FOR HEAD 
                                                   Max.-Head-Change                         Max.-Flux-Residual
  Residual-Control   Outer-Iter.   Inner-Iter.     Column Row Layer    Maximum-Head-Change  Column Row Layer    Maximum-Flux-Residual          L2-NORM 
          0                 1           2             5    8     1       0.7273631907E-01       5    8    1         0.3954894349E+01      0.9565743954E+01
          0                 2           2             5    7     1      -0.9552276203E-01       5    8    1        -0.5239982404E+01      0.1272873916E+02
          0                 3           2             5    7     1       0.6504117253E-02       5    8    1         0.3667639790E+00      0.8918689157E+00
          0                 4           2             4    7     1      -0.1485313393E-02       5    8    1        -0.8457741738E-01      0.2068511643E+00
          0                 5           2             4    7     1      -0.1359470899E-02       4    7    1        -0.7709153352E-01      0.1888292453E+00
          0                 6           2             4    7     1      -0.1326606167E-02       5    8    1        -0.7522806640E-01      0.1842692746E+00
          0                 7           2             4    7     1      -0.1325206686E-02       5    8    1        -0.7514786946E-01      0.1840729237E+00
          0                 8           2             4    7     1      -0.1365705629E-02       5    8    1        -0.7744363007E-01      0.1896963642E+00
          0                 9           2             4    7     1      -0.1249296536E-02       5    8    1        -0.7084195301E-01      0.1735255940E+00
          0                10           2             4    7     1      -0.1351022745E-02       5    8    1        -0.7660945994E-01      0.1876531340E+00
                                                   Max.-Head-Change                         Max.-Flux-Residual
  Residual-Control   Outer-Iter.   Inner-Iter.     Column Row Layer    Maximum-Head-Change  Column Row Layer    Maximum-Flux-Residual          L2-NORM 
          0                11           2             4    7     1      -0.1342698301E-02       5    8    1        -0.7613675620E-01      0.1864951678E+00
          0                12           2             4    7     1      -0.1395598413E-02       5    8    1        -0.7913558900E-01      0.1938407872E+00
          0                13           2             4    7     1      -0.1370158444E-02       5    8    1        -0.7769233774E-01      0.1903055167E+00
          0                14           2             4    7     1      -0.1276363260E-02       5    8    1        -0.7237318505E-01      0.1772763296E+00
          0                15           2             4    7     1      -0.1365853126E-02       5    8    1        -0.7744659372E-01      0.1897036634E+00
          0                16           2             4    7     1      -0.1334283724E-02       5    8    1        -0.7565588836E-01      0.1853172764E+00
          0                17           2             4    7     1      -0.1400502376E-02       5    8    1        -0.7940972450E-01      0.1945122864E+00
          0                18           2             4    7     1      -0.1335706519E-02       5    8    1        -0.7573508787E-01      0.1855112496E+00
          0                19           2             4    7     1      -0.1394379868E-02       5    8    1        -0.7906101318E-01      0.1936581216E+00
          0                20           2             4    7     1      -0.1370164063E-02       5    8    1        -0.7768727694E-01      0.1902931210E+00
                                                   Max.-Head-Change                         Max.-Flux-Residual
  Residual-Control   Outer-Iter.   Inner-Iter.     Column Row Layer    Maximum-Head-Change  Column Row Layer    Maximum-Flux-Residual          L2-NORM 
          0                21           2             4    7     1      -0.1371710903E-02       5    8    1        -0.7777419120E-01      0.1905060376E+00
          0                22           2             4    7     1      -0.1397325403E-02       5    8    1        -0.7922569947E-01      0.1940614898E+00
          0                23           2             4    7     1      -0.1400537187E-02       5    8    1        -0.7940703294E-01      0.1945056443E+00
          0                24           2             4    7     1      -0.1594842965E-02       5    8    1        -0.9042266307E-01      0.2214883134E+00
          0                25           1             4    7     1       0.1739778442E-04       4    7    1         0.1013708733E-02      0.2483589957E-02

    ------------------------------------------------
       NWT REQUIRED           25 OUTER ITERATIONS 
       AND A TOTAL OF         49 INNER ITERATIONS.
    ------------------------------------------------

 NO OUTPUT CONTROL FOR STRESS PERIOD   21   TIME STEP   16
 
 SOLVING FOR HEAD 
                                                   Max.-Head-Change                         Max.-Flux-Residual
  Residual-Control   Outer-Iter.   Inner-Iter.     Column Row Layer    Maximum-Head-Change  Column Row Layer    Maximum-Flux-Residual          L2-NORM 
          0                 1           2             5    8     1       0.7307598696E-01       5    8    1         0.3972724707E+01      0.9625628559E+01
          0                 2           2             5    7     1      -0.9594253376E-01       5    8    1        -0.5261627570E+01      0.1278381352E+02
          0                 3           2             5    7     1       0.6532710250E-02       5    8    1         0.3682796054E+00      0.8957173270E+00
          0                 4           2             4    7     1      -0.1651047989E-02       5    8    1        -0.9396967933E-01      0.2298606642E+00
          0                 5           2             4    7     1      -0.1315034719E-02       4    7    1        -0.7457156176E-01      0.1826568644E+00
          0                 6           2             4    7     1      -0.1290837435E-02       5    8    1        -0.7319957474E-01      0.1793005466E+00
          0                 7           2             4    7     1      -0.1294810673E-02       5    8    1        -0.7342407597E-01      0.1798505360E+00
          0                 8           2             4    7     1      -0.1340774657E-02       5    8    1        -0.7602974876E-01      0.1862330995E+00
          0                 9           2             4    7     1      -0.1237271235E-02       5    8    1        -0.7015991271E-01      0.1718549621E+00
          0                10           2             4    7     1      -0.1348857361E-02       5    8    1        -0.7648652197E-01      0.1873520075E+00
                                                   Max.-Head-Change                         Max.-Flux-Residual
  Residual-Control   Outer-Iter.   Inner-Iter.     Column Row Layer    Maximum-Head-Change  Column Row Layer    Maximum-Flux-Residual          L2-NORM 
          0                11           2             4    7     1      -0.1359244314E-02       5    8    1        -0.7707482832E-01      0.1887929670E+00
          0                12           2             4    7     1      -0.1270510676E-02       5    8    1        -0.7204261566E-01      0.1764666105E+00
          0                13           2             4    7     1      -0.1377962508E-02       5    8    1        -0.7813460671E-01      0.1913889483E+00
          0                14           2             4    7     1      -0.1304934279E-02       5    8    1        -0.7399308665E-01      0.1812442515E+00
          0                15           2             4    7     1      -0.1300324427E-02       5    8    1        -0.7373091252E-01      0.1806021193E+00
          0                16           2             4    7     1      -0.1382067030E-02       5    8    1        -0.7836504149E-01      0.1919533708E+00
          0                17           2             4    7     1      -0.1389919694E-02       5    8    1        -0.7880957436E-01      0.1930421854E+00
          0                18           2             4    7     1      -0.1356154445E-02       5    8    1        -0.7689432434E-01      0.1883507971E+00
          0                19           2             4    7     1      -0.1385374132E-02       5    8    1        -0.7855026469E-01      0.1924070322E+00
          0                20           2             4    7     1      -0.1401575987E-02       5    8    1        -0.7946813012E-01      0.1946553100E+00
                                                   Max.-Head-Change                         Max.-Flux-Residual
  Residual-Control   Outer-Iter.   Inner-Iter.     Column Row Layer    Maximum-Head-Change  Column Row Layer    Maximum-Flux-Residual          L2-NORM 
          0                21           2             4    7     1      -0.1414345104E-02       5    8    1        -0.8019133680E-01      0.1964267855E+00
          0                22           2             4    7     1      -0.1400766945E-02       5    8    1        -0.7942070789E-01      0.1945391286E+00
          0                23           2             4    7     1      -0.1413262465E-02       5    8    1        -0.8012836695E-01      0.1962725430E+00
          0                24           2             4    7     1      -0.1232446603E-02       5    8    1        -0.6987601753E-01      0.1711595109E+00
          0                25           1             4    7     1       0.1418440931E-04       4    7    1         0.8264796304E-03      0.2024761773E-02

    ------------------------------------------------
       NWT REQUIRED           25 OUTER ITERATIONS 
       AND A TOTAL OF         49 INNER ITERATIONS.
    ------------------------------------------------

 NO OUTPUT CONTROL FOR STRESS PERIOD   21   TIME STEP   17
 
 SOLVING FOR HEAD 
                                                   Max.-Head-Change                         Max.-Flux-Residual
  Residual-Control   Outer-Iter.   Inner-Iter.     Column Row Layer    Maximum-Head-Change  Column Row Layer    Maximum-Flux-Residual          L2-NORM 
          0                 1           2             5    8     1       0.7341223546E-01       5    8    1         0.3990381928E+01      0.9684560886E+01
          0                 2           2             5    7     1      -0.9635281312E-01       5    8    1        -0.5282796230E+01      0.1283765771E+02
          0                 3           2             5    7     1       0.6560648304E-02       5    8    1         0.3697613997E+00      0.8994787691E+00
          0                 4           2             4    7     1      -0.1535853409E-02       5    8    1        -0.8743133543E-01      0.2138526333E+00
          0                 5           2             4    7     1      -0.1182998494E-02       4    7    1        -0.6708407323E-01      0.1643163512E+00
          0                 6           2             4    7     1      -0.1370708977E-02       5    8    1        -0.7772855141E-01      0.1903943283E+00
          0                 7           2             4    7     1      -0.1404259850E-02       5    8    1        -0.7963038468E-01      0.1950527577E+00
          0                 8           2             4    7     1      -0.1272088956E-02       5    8    1        -0.7213486189E-01      0.1766925324E+00
          0                 9           2             4    7     1      -0.1366134227E-02       5    8    1        -0.7746683654E-01      0.1897532524E+00
          0                10           2             4    7     1      -0.1339214740E-02       5    8    1        -0.7593970444E-01      0.1860124805E+00
                                                   Max.-Head-Change                         Max.-Flux-Residual
  Residual-Control   Outer-Iter.   Inner-Iter.     Column Row Layer    Maximum-Head-Change  Column Row Layer    Maximum-Flux-Residual          L2-NORM 
          0                11           2             4    7     1      -0.1367064182E-02       5    8    1        -0.7751808692E-01      0.1898787361E+00
          0                12           2             4    7     1      -0.1301805748E-02       5    8    1        -0.7381700639E-01      0.1808129555E+00
          0                13           2             4    7     1      -0.1291360244E-02       5    8    1        -0.7322394327E-01      0.1793603054E+00
          0                14           2             4    7     1      -0.1349830726E-02       5    8    1        -0.7653858734E-01      0.1874794975E+00
          0                15           2             4    7     1      -0.1385018955E-02       5    8    1        -0.7853308602E-01      0.1923649551E+00
          0                16           2             4    7     1      -0.1312136377E-02       5    8    1        -0.7439985148E-01      0.1822406148E+00
          0                17           2             4    7     1      -0.1333714207E-02       5    8    1        -0.7562252286E-01      0.1852355936E+00
          0                18           2             4    7     1      -0.1398741138E-02       5    8    1        -0.7930878317E-01      0.1942650304E+00
          0                19           2             4    7     1      -0.1347902775E-02       5    8    1        -0.7642556903E-01      0.1872025775E+00
          0                20           2             4    7     1      -0.1398728729E-02       5    8    1        -0.7930651868E-01      0.1942594753E+00
                                                   Max.-Head-Change                         Max.-Flux-Residual
  Residual-Control   Outer-Iter.   Inner-Iter.     Column Row Layer    Maximum-Head-Change  Column Row Layer    Maximum-Flux-Residual          L2-NORM 
          0                21           2             4    7     1      -0.1377152516E-02       5    8    1        -0.7808245132E-01      0.1912610937E+00
          0                22           2             4    7     1      -0.1395603971E-02       5    8    1        -0.7912780684E-01      0.1938216997E+00
          0                23           2             4    7     1      -0.2415623789E-02       5    8    1        -0.1369587200E+00      0.3354779053E+00
          0                24           1             4    7     1       0.2654987801E-04       4    7    1         0.1546978372E-02      0.3790119487E-02

    ------------------------------------------------
       NWT REQUIRED           24 OUTER ITERATIONS 
       AND A TOTAL OF         47 INNER ITERATIONS.
    ------------------------------------------------

 NO OUTPUT CONTROL FOR STRESS PERIOD   21   TIME STEP   18
 
 SOLVING FOR HEAD 
                                                   Max.-Head-Change                         Max.-Flux-Residual
  Residual-Control   Outer-Iter.   Inner-Iter.     Column Row Layer    Maximum-Head-Change  Column Row Layer    Maximum-Flux-Residual          L2-NORM 
          0                 1           2             5    8     1       0.7374472238E-01       5    8    1         0.4007846376E+01      0.9742552853E+01
          0                 2           2             5    7     1      -0.9675401054E-01       5    8    1        -0.5303505969E+01      0.1289032125E+02
          0                 3           2             5    7     1       0.6587959366E-02       5    8    1         0.3712105928E+00      0.9031565503E+00
          0                 4           2             4    7     1      -0.1432824951E-02       5    8    1        -0.8158307202E-01      0.1995348026E+00
          0                 5           2             4    7     1      -0.1305587170E-02       4    7    1        -0.7403553097E-01      0.1813438877E+00
          0                 6           2             4    7     1      -0.1293610888E-02       5    8    1        -0.7335657439E-01      0.1796851180E+00
          0                 7           2             4    7     1      -0.1316862362E-02       5    8    1        -0.7467425952E-01      0.1829128454E+00
          0                 8           2             4    7     1      -0.1390979326E-02       5    8    1        -0.7887633739E-01      0.1932057715E+00
          0                 9           2             4    7     1      -0.1326413978E-02       5    8    1        -0.7521447436E-01      0.1842360192E+00
          0                10           2             4    7     1      -0.1305009163E-02       5    8    1        -0.7399994523E-01      0.1812610957E+00
                                                   Max.-Head-Change                         Max.-Flux-Residual
  Residual-Control   Outer-Iter.   Inner-Iter.     Column Row Layer    Maximum-Head-Change  Column Row Layer    Maximum-Flux-Residual          L2-NORM 
          0                11           2             4    7     1      -0.1334537633E-02       5    8    1        -0.7567355966E-01      0.1853606113E+00
          0                12           2             4    7     1      -0.1274387450E-02       5    8    1        -0.7226215662E-01      0.1770043917E+00
          0                13           2             4    7     1      -0.1415811458E-02       5    8    1        -0.8028043840E-01      0.1966451370E+00
          0                14           2             4    7     1      -0.1401393467E-02       5    8    1        -0.7946222928E-01      0.1946408296E+00
          0                15           2             4    7     1      -0.1363103240E-02       5    8    1        -0.7729033369E-01      0.1893208101E+00
          0                16           2             4    7     1      -0.1317893720E-02       5    8    1        -0.7472614120E-01      0.1830398767E+00
          0                17           2             4    7     1      -0.1375162424E-02       5    8    1        -0.7797249842E-01      0.1909918289E+00
          0                18           2             4    7     1      -0.1339814533E-02       5    8    1        -0.7596756988E-01      0.1860807312E+00
          0                19           2             4    7     1      -0.1382762905E-02       5    8    1        -0.7840190987E-01      0.1920436511E+00
          0                20           2             4    7     1      -0.1391135726E-02       5    8    1        -0.7887589166E-01      0.1932046297E+00
                                                   Max.-Head-Change                         Max.-Flux-Residual
  Residual-Control   Outer-Iter.   Inner-Iter.     Column Row Layer    Maximum-Head-Change  Column Row Layer    Maximum-Flux-Residual          L2-NORM 
          0                21           2             4    7     1      -0.1387546570E-02       5    8    1        -0.7867161972E-01      0.1927042627E+00
          0                22           2             4    7     1      -0.1414396151E-02       5    8    1        -0.8019313164E-01      0.1964311932E+00
          0                23           2             4    7     1      -0.2046080163E-02       5    8    1        -0.1160066446E+00      0.2841559991E+00
          0                24           1             4    7     1       0.2262866889E-04       4    7    1         0.1318500668E-02      0.3230311874E-02

    ------------------------------------------------
       NWT REQUIRED           24 OUTER ITERATIONS 
       AND A TOTAL OF         47 INNER ITERATIONS.
    ------------------------------------------------

 NO OUTPUT CONTROL FOR STRESS PERIOD   21   TIME STEP   19
 
 SOLVING FOR HEAD 
                                                   Max.-Head-Change                         Max.-Flux-Residual
  Residual-Control   Outer-Iter.   Inner-Iter.     Column Row Layer    Maximum-Head-Change  Column Row Layer    Maximum-Flux-Residual          L2-NORM 
          0                 1           2             5    8     1       0.7407354005E-01       5    8    1         0.4025122814E+01      0.9799626722E+01
          0                 2           2             5    7     1      -0.9714649006E-01       5    8    1        -0.5323776816E+01      0.1294185476E+02
          0                 3           2             5    7     1       0.6614693887E-02       5    8    1         0.3726300172E+00      0.9067578065E+00
          0                 4           2             4    7     1      -0.1585583962E-02       5    8    1        -0.9023993109E-01      0.2207424939E+00
          0                 5           2             4    7     1      -0.1265183090E-02       4    7    1        -0.7174422917E-01      0.1757316121E+00
          0                 6           2             4    7     1      -0.1260523578E-02       5    8    1        -0.7148015806E-01      0.1750888933E+00
          0                 7           2             4    7     1      -0.1288113849E-02       5    8    1        -0.7304390508E-01      0.1789193337E+00
          0                 8           2             4    7     1      -0.1366599065E-02       5    8    1        -0.7749369522E-01      0.1898190255E+00
          0                 9           2             4    7     1      -0.1313725752E-02       5    8    1        -0.7449484400E-01      0.1824733105E+00
          0                10           2             4    7     1      -0.1305896191E-02       5    8    1        -0.7405010007E-01      0.1813839587E+00
                                                   Max.-Head-Change                         Max.-Flux-Residual
  Residual-Control   Outer-Iter.   Inner-Iter.     Column Row Layer    Maximum-Head-Change  Column Row Layer    Maximum-Flux-Residual          L2-NORM 
          0                11           2             4    7     1      -0.1353937589E-02       5    8    1        -0.7677346203E-01      0.1880548096E+00
          0                12           2             4    7     1      -0.1322118443E-02       5    8    1        -0.7496851090E-01      0.1836335631E+00
          0                13           2             4    7     1      -0.1357457117E-02       5    8    1        -0.7697151856E-01      0.1885399357E+00
          0                14           2             4    7     1      -0.1353516467E-02       5    8    1        -0.7674734409E-01      0.1879907940E+00
          0                15           2             4    7     1      -0.1327723802E-02       5    8    1        -0.7528411344E-01      0.1844066302E+00
          0                16           2             4    7     1      -0.1400352121E-02       5    8    1        -0.7940140040E-01      0.1944919014E+00
          0                17           2             4    7     1      -0.1343523385E-02       5    8    1        -0.7617849313E-01      0.1865973663E+00
          0                18           2             4    7     1      -0.1341357416E-02       5    8    1        -0.7605488614E-01      0.1862946390E+00
          0                19           2             4    7     1      -0.1366732985E-02       5    8    1        -0.7749289497E-01      0.1898170264E+00
          0                20           2             4    7     1      -0.1372093096E-02       5    8    1        -0.7779605564E-01      0.1905595954E+00
                                                   Max.-Head-Change                         Max.-Flux-Residual
  Residual-Control   Outer-Iter.   Inner-Iter.     Column Row Layer    Maximum-Head-Change  Column Row Layer    Maximum-Flux-Residual          L2-NORM 
          0                21           2             4    7     1      -0.1410467370E-02       5    8    1        -0.7997101633E-01      0.1958871355E+00
          0                22           2             4    7     1      -0.1412338212E-02       5    8    1        -0.8007632507E-01      0.1961450583E+00
          0                23           2             4    7     1      -0.1745330732E-02       5    8    1        -0.9895501652E-01      0.2423882156E+00
          0                24           1             4    7     1       0.1938023031E-04       4    7    1         0.1129223336E-02      0.2766561592E-02

    ------------------------------------------------
       NWT REQUIRED           24 OUTER ITERATIONS 
       AND A TOTAL OF         47 INNER ITERATIONS.
    ------------------------------------------------

 NO OUTPUT CONTROL FOR STRESS PERIOD   21   TIME STEP   20
 
 SOLVING FOR HEAD 
                                                   Max.-Head-Change                         Max.-Flux-Residual
  Residual-Control   Outer-Iter.   Inner-Iter.     Column Row Layer    Maximum-Head-Change  Column Row Layer    Maximum-Flux-Residual          L2-NORM 
          0                 1           2             5    8     1       0.7439865921E-01       5    8    1         0.4042208778E+01      0.9855788350E+01
          0                 2           2             5    7     1      -0.9753062340E-01       5    8    1        -0.5343626165E+01      0.1299230267E+02
          0                 3           2             5    7     1       0.6640851517E-02       5    8    1         0.3740194601E+00      0.9102819024E+00
          0                 4           2             4    7     1      -0.1481195325E-02       5    8    1        -0.8431483729E-01      0.2062360434E+00
          0                 5           2             4    7     1      -0.1389076098E-02       4    7    1        -0.7876962028E-01      0.1929402418E+00
          0                 6           2             4    7     1      -0.1195256644E-02       5    8    1        -0.6777910792E-01      0.1660231111E+00
          0                 7           2             4    7     1      -0.1215920510E-02       5    8    1        -0.6894997728E-01      0.1688913556E+00
          0                 8           2             4    7     1      -0.1276901894E-02       5    8    1        -0.7240725086E-01      0.1773598876E+00
          0                 9           2             4    7     1      -0.1403636073E-02       5    8    1        -0.7959293565E-01      0.1949611005E+00
          0                10           2             4    7     1      -0.1249959669E-02       5    8    1        -0.7087823485E-01      0.1736144353E+00
                                                   Max.-Head-Change                         Max.-Flux-Residual
  Residual-Control   Outer-Iter.   Inner-Iter.     Column Row Layer    Maximum-Head-Change  Column Row Layer    Maximum-Flux-Residual          L2-NORM 
          0                11           2             4    7     1      -0.1289631007E-02       5    8    1        -0.7312690082E-01      0.1791226429E+00
          0                12           2             4    7     1      -0.1401451008E-02       5    8    1        -0.7946668409E-01      0.1946518396E+00
          0                13           2             4    7     1      -0.1330285751E-02       5    8    1        -0.7543077327E-01      0.1847658324E+00
          0                14           2             4    7     1      -0.1331529752E-02       5    8    1        -0.7550050710E-01      0.1849367038E+00
          0                15           2             4    7     1      -0.1310876475E-02       5    8    1        -0.7432870623E-01      0.1820663865E+00
          0                16           2             4    7     1      -0.1388316954E-02       5    8    1        -0.7871884947E-01      0.1928200127E+00
          0                17           2             4    7     1      -0.1341165235E-02       5    8    1        -0.7604464202E-01      0.1862695083E+00
          0                18           2             4    7     1      -0.1351986582E-02       5    8    1        -0.7665741309E-01      0.1877705240E+00
          0                19           2             4    7     1      -0.1397573444E-02       5    8    1        -0.7924137395E-01      0.1940998990E+00
          0                20           2             4    7     1      -0.1387889596E-02       5    8    1        -0.7869156909E-01      0.1927531225E+00
                                                   Max.-Head-Change                         Max.-Flux-Residual
  Residual-Control   Outer-Iter.   Inner-Iter.     Column Row Layer    Maximum-Head-Change  Column Row Layer    Maximum-Flux-Residual          L2-NORM 
          0                21           2             4    7     1      -0.1389081895E-02       5    8    1        -0.7875838248E-01      0.1929167902E+00
          0                22           2             4    7     1      -0.1402758570E-02       5    8    1        -0.7953302950E-01      0.1948142787E+00
          0                23           2             4    7     1      -0.1644431619E-02       5    8    1        -0.9323422482E-01      0.2283752028E+00
          0                24           1             4    7     1       0.1832202080E-04       4    7    1         0.1067563486E-02      0.2615484255E-02

    ------------------------------------------------
       NWT REQUIRED           24 OUTER ITERATIONS 
       AND A TOTAL OF         47 INNER ITERATIONS.
    ------------------------------------------------

 NO OUTPUT CONTROL FOR STRESS PERIOD   21   TIME STEP   21
 
 SOLVING FOR HEAD 
                                                   Max.-Head-Change                         Max.-Flux-Residual
  Residual-Control   Outer-Iter.   Inner-Iter.     Column Row Layer    Maximum-Head-Change  Column Row Layer    Maximum-Flux-Residual          L2-NORM 
          0                 1           2             5    8     1       0.7472006061E-01       5    8    1         0.4059102780E+01      0.9911055601E+01
          0                 2           2             5    7     1      -0.9790674286E-01       5    8    1        -0.5363071035E+01      0.1304170950E+02
          0                 3           2             5    7     1       0.6666463438E-02       5    8    1         0.3753805896E+00      0.9137334367E+00
          0                 4           2             4    7     1      -0.1634774157E-02       5    8    1        -0.9301842631E-01      0.2275580527E+00
          0                 5           2             4    7     1      -0.1350166779E-02       4    7    1        -0.7656308377E-01      0.1875355935E+00
          0                 6           2             4    7     1      -0.1400821929E-02       5    8    1        -0.7943568673E-01      0.1945758144E+00
          0                 7           2             4    7     1      -0.1285000627E-02       5    8    1        -0.7286721103E-01      0.1784864167E+00
          0                 8           2             4    7     1      -0.1400675334E-02       5    8    1        -0.7942569443E-01      0.1945514443E+00
          0                 9           2             4    7     1      -0.1406135107E-02       5    8    1        -0.7973459015E-01      0.1953079869E+00
          0                10           2             4    7     1      -0.1302925576E-02       5    8    1        -0.7388145958E-01      0.1809708046E+00
                                                   Max.-Head-Change                         Max.-Flux-Residual
  Residual-Control   Outer-Iter.   Inner-Iter.     Column Row Layer    Maximum-Head-Change  Column Row Layer    Maximum-Flux-Residual          L2-NORM 
          0                11           2             4    7     1      -0.1406093292E-02       5    8    1        -0.7973056496E-01      0.1952982077E+00
          0                12           2             4    7     1      -0.1311838156E-02       5    8    1        -0.7438536568E-01      0.1822051141E+00
          0                13           2             4    7     1      -0.1415047214E-02       5    8    1        -0.8023669801E-01      0.1965379684E+00
          0                14           2             4    7     1      -0.1396760330E-02       5    8    1        -0.7919909511E-01      0.1939962871E+00
          0                15           2             4    7     1      -0.1383765262E-02       5    8    1        -0.7846146532E-01      0.1921894884E+00
          0                16           2             4    7     1      -0.1402786061E-02       5    8    1        -0.7953916215E-01      0.1948293050E+00
          0                17           2             4    7     1      -0.1339275344E-02       5    8    1        -0.7593735904E-01      0.1860067108E+00
          0                18           2             4    7     1      -0.1360406371E-02       5    8    1        -0.7713466841E-01      0.1889395578E+00
          0                19           2             4    7     1      -0.1406222948E-02       5    8    1        -0.7973165262E-01      0.1953008248E+00
          0                20           2             4    7     1      -0.1383576119E-02       5    8    1        -0.7844686987E-01      0.1921537279E+00
                                                   Max.-Head-Change                         Max.-Flux-Residual
  Residual-Control   Outer-Iter.   Inner-Iter.     Column Row Layer    Maximum-Head-Change  Column Row Layer    Maximum-Flux-Residual          L2-NORM 
          0                21           2             4    7     1      -0.1401923295E-02       5    8    1        -0.7948631175E-01      0.1946998490E+00
          0                22           2             4    7     1      -0.1887542747E-02       5    8    1        -0.1070185977E+00      0.2621398812E+00
          0                23           1             4    7     1       0.2110078846E-04       4    7    1         0.1229482883E-02      0.3012182831E-02

    ------------------------------------------------
       NWT REQUIRED           23 OUTER ITERATIONS 
       AND A TOTAL OF         45 INNER ITERATIONS.
    ------------------------------------------------

 NO OUTPUT CONTROL FOR STRESS PERIOD   21   TIME STEP   22
 
 SOLVING FOR HEAD 
                                                   Max.-Head-Change                         Max.-Flux-Residual
  Residual-Control   Outer-Iter.   Inner-Iter.     Column Row Layer    Maximum-Head-Change  Column Row Layer    Maximum-Flux-Residual          L2-NORM 
          0                 1           2             5    8     1       0.7503773372E-01       5    8    1         0.4075803858E+01      0.9965445382E+01
          0                 2           2             5    7     1      -0.9827516409E-01       5    8    1        -0.5382126111E+01      0.1309011339E+02
          0                 3           2             5    7     1       0.6691551145E-02       5    8    1         0.3767144336E+00      0.9171149486E+00
          0                 4           2             4    7     1      -0.1529272520E-02       5    8    1        -0.8703050019E-01      0.2128973380E+00
          0                 5           2             4    7     1      -0.1223018150E-02       4    7    1        -0.6935282434E-01      0.1698741462E+00
          0                 6           2             4    7     1      -0.1237007032E-02       5    8    1        -0.7014622464E-01      0.1718214713E+00
          0                 7           2             4    7     1      -0.1288377234E-02       5    8    1        -0.7305843568E-01      0.1789549435E+00
          0                 8           2             4    7     1      -0.1401854244E-02       5    8    1        -0.7949241249E-01      0.1947148619E+00
          0                 9           2             4    7     1      -0.1406383293E-02       5    8    1        -0.7974852452E-01      0.1953421184E+00
          0                10           2             4    7     1      -0.1301133541E-02       5    8    1        -0.7377971608E-01      0.1807215849E+00
                                                   Max.-Head-Change                         Max.-Flux-Residual
  Residual-Control   Outer-Iter.   Inner-Iter.     Column Row Layer    Maximum-Head-Change  Column Row Layer    Maximum-Flux-Residual          L2-NORM 
          0                11           2             4    7     1      -0.1402191404E-02       5    8    1        -0.7950917611E-01      0.1947559194E+00
          0                12           2             4    7     1      -0.1303783456E-02       5    8    1        -0.7392851291E-01      0.1810860611E+00
          0                13           2             4    7     1      -0.1400746844E-02       5    8    1        -0.7942569621E-01      0.1945514343E+00
          0                14           2             4    7     1      -0.1372010696E-02       5    8    1        -0.7779561322E-01      0.1905584839E+00
          0                15           2             4    7     1      -0.1342043567E-02       5    8    1        -0.7609566484E-01      0.1863945039E+00
          0                16           2             4    7     1      -0.1332595290E-02       5    8    1        -0.7555917307E-01      0.1850803953E+00
          0                17           2             4    7     1      -0.1374328294E-02       5    8    1        -0.7792465928E-01      0.1908746355E+00
          0                18           2             4    7     1      -0.1382095070E-02       5    8    1        -0.7836428790E-01      0.1919514682E+00
          0                19           2             4    7     1      -0.1412759689E-02       5    8    1        -0.8010215089E-01      0.1962083407E+00
          0                20           2             4    7     1      -0.1404789251E-02       5    8    1        -0.7964947504E-01      0.1950994922E+00
                                                   Max.-Head-Change                         Max.-Flux-Residual
  Residual-Control   Outer-Iter.   Inner-Iter.     Column Row Layer    Maximum-Head-Change  Column Row Layer    Maximum-Flux-Residual          L2-NORM 
          0                21           2             4    7     1      -0.1399222984E-02       5    8    1        -0.7933308836E-01      0.1943245137E+00
          0                22           2             4    7     1      -0.2064559102E-02       5    8    1        -0.1170546473E+00      0.2867230836E+00
          0                23           1             4    7     1       0.2316717626E-04       4    7    1         0.1349883189E-02      0.3307155090E-02

    ------------------------------------------------
       NWT REQUIRED           23 OUTER ITERATIONS 
       AND A TOTAL OF         45 INNER ITERATIONS.
    ------------------------------------------------

 NO OUTPUT CONTROL FOR STRESS PERIOD   21   TIME STEP   23
 
 SOLVING FOR HEAD 
                                                   Max.-Head-Change                         Max.-Flux-Residual
  Residual-Control   Outer-Iter.   Inner-Iter.     Column Row Layer    Maximum-Head-Change  Column Row Layer    Maximum-Flux-Residual          L2-NORM 
          0                 1           2             5    8     1       0.7535153245E-01       5    8    1         0.4092303585E+01      0.1001896529E+02
          0                 2           2             4    7     1      -0.9864508360E-01       5    8    1        -0.5400806287E+01      0.1313755435E+02
          0                 3           2             4    7     1       0.6716751325E-02       5    8    1         0.3780229883E+00      0.9204314187E+00
          0                 4           2             4    7     1      -0.1683642045E-02       5    8    1        -0.9577914579E-01      0.2343295793E+00
          0                 5           2             4    7     1      -0.1196316501E-02       4    7    1        -0.6783856455E-01      0.1661652190E+00
          0                 6           2             4    7     1      -0.1219773050E-02       5    8    1        -0.6916881497E-01      0.1694273432E+00
          0                 7           2             4    7     1      -0.1279920074E-02       5    8    1        -0.7257873380E-01      0.1777799313E+00
          0                 8           2             4    7     1      -0.1406210767E-02       5    8    1        -0.7973930290E-01      0.1953196235E+00
          0                 9           2             4    7     1      -0.1246663902E-02       5    8    1        -0.7069168203E-01      0.1731574744E+00
          0                10           2             4    7     1      -0.1281051415E-02       5    8    1        -0.7264074553E-01      0.1779318134E+00
                                                   Max.-Head-Change                         Max.-Flux-Residual
  Residual-Control   Outer-Iter.   Inner-Iter.     Column Row Layer    Maximum-Head-Change  Column Row Layer    Maximum-Flux-Residual          L2-NORM 
          0                11           2             4    7     1      -0.1384772973E-02       5    8    1        -0.7852135530E-01      0.1923362733E+00
          0                12           2             4    7     1      -0.1298734955E-02       5    8    1        -0.7364211106E-01      0.1803845360E+00
          0                13           2             4    7     1      -0.1409029849E-02       5    8    1        -0.7989521515E-01      0.1957015194E+00
          0                14           2             4    7     1      -0.1404259380E-02       5    8    1        -0.7962401949E-01      0.1950371393E+00
          0                15           2             4    7     1      -0.1411653595E-02       5    8    1        -0.8004248056E-01      0.1960621627E+00
          0                16           2             4    7     1      -0.1372310473E-02       5    8    1        -0.7781094182E-01      0.1905960259E+00
          0                17           2             4    7     1      -0.1397033996E-02       5    8    1        -0.7921195101E-01      0.1940278143E+00
          0                18           2             4    7     1      -0.1405842576E-02       5    8    1        -0.7971062333E-01      0.1952492863E+00
          0                19           2             4    7     1      -0.1411103866E-02       5    8    1        -0.8000814667E-01      0.1959780606E+00
          0                20           2             4    7     1      -0.1401751651E-02       5    8    1        -0.7947710993E-01      0.1946772878E+00
                                                   Max.-Head-Change                         Max.-Flux-Residual
  Residual-Control   Outer-Iter.   Inner-Iter.     Column Row Layer    Maximum-Head-Change  Column Row Layer    Maximum-Flux-Residual          L2-NORM 
          0                21           2             4    7     1      -0.1402704217E-02       5    8    1        -0.7953032446E-01      0.1948076437E+00
          0                22           2             4    7     1      -0.1667365222E-02       5    8    1        -0.9453491254E-01      0.2315612244E+00
          0                23           1             4    7     1       0.1878103703E-04       4    7    1         0.1094314885E-02      0.2680998483E-02

    ------------------------------------------------
       NWT REQUIRED           23 OUTER ITERATIONS 
       AND A TOTAL OF         45 INNER ITERATIONS.
    ------------------------------------------------

 NO OUTPUT CONTROL FOR STRESS PERIOD   21   TIME STEP   24
 
 SOLVING FOR HEAD 
                                                   Max.-Head-Change                         Max.-Flux-Residual
  Residual-Control   Outer-Iter.   Inner-Iter.     Column Row Layer    Maximum-Head-Change  Column Row Layer    Maximum-Flux-Residual          L2-NORM 
          0                 1           2             5    8     1       0.7566160959E-01       5    8    1         0.4108609835E+01      0.1007163780E+02
          0                 2           2             4    7     1      -0.9901825148E-01       5    8    1        -0.5419125224E+01      0.1318406594E+02
          0                 3           2             4    7     1       0.6742144877E-02       5    8    1         0.3793043491E+00      0.9236781175E+00
          0                 4           2             4    7     1      -0.1577265473E-02       5    8    1        -0.8974186623E-01      0.2195475822E+00
          0                 5           2             4    7     1      -0.1305166532E-02       4    7    1        -0.7401089170E-01      0.1812842663E+00
          0                 6           2             4    7     1      -0.1373355975E-02       5    8    1        -0.7787776979E-01      0.1907597491E+00
          0                 7           2             4    7     1      -0.1291116263E-02       5    8    1        -0.7321359937E-01      0.1793349115E+00
          0                 8           2             4    7     1      -0.1245346254E-02       5    8    1        -0.7061745472E-01      0.1729757480E+00
          0                 9           2             4    7     1      -0.1238535958E-02       5    8    1        -0.7023055523E-01      0.1720280748E+00
          0                10           2             4    7     1      -0.1282679144E-02       5    8    1        -0.7273291726E-01      0.1781575884E+00
                                                   Max.-Head-Change                         Max.-Flux-Residual
  Residual-Control   Outer-Iter.   Inner-Iter.     Column Row Layer    Maximum-Head-Change  Column Row Layer    Maximum-Flux-Residual          L2-NORM 
          0                11           2             4    7     1      -0.1404079527E-02       5    8    1        -0.7961595465E-01      0.1950174817E+00
          0                12           2             4    7     1      -0.1348014827E-02       5    8    1        -0.7643627088E-01      0.1872287862E+00
          0                13           2             4    7     1      -0.1371595001E-02       5    8    1        -0.7777250121E-01      0.1905019159E+00
          0                14           2             4    7     1      -0.1385531892E-02       5    8    1        -0.7856198667E-01      0.1924357319E+00
          0                15           2             4    7     1      -0.1318117957E-02       5    8    1        -0.7473882158E-01      0.1830709192E+00
          0                16           2             4    7     1      -0.1361356308E-02       5    8    1        -0.7718963947E-01      0.1890742250E+00
          0                17           2             4    7     1      -0.1409446650E-02       5    8    1        -0.7991559850E-01      0.1957513971E+00
          0                18           2             4    7     1      -0.1397587249E-02       5    8    1        -0.7924242968E-01      0.1941024410E+00
          0                19           2             4    7     1      -0.1393811597E-02       5    8    1        -0.7902756309E-01      0.1935761383E+00
          0                20           2             4    7     1      -0.1385861917E-02       5    8    1        -0.7857605123E-01      0.1924701673E+00
                                                   Max.-Head-Change                         Max.-Flux-Residual
  Residual-Control   Outer-Iter.   Inner-Iter.     Column Row Layer    Maximum-Head-Change  Column Row Layer    Maximum-Flux-Residual          L2-NORM 
          0                21           2             4    7     1      -0.2917826376E-02       5    8    1        -0.1654331230E+00      0.4052256703E+00
          0                22           1             4    7     1       0.3289288346E-04       4    7    1         0.1916583212E-02      0.4695560770E-02

    ------------------------------------------------
       NWT REQUIRED           22 OUTER ITERATIONS 
       AND A TOTAL OF         43 INNER ITERATIONS.
    ------------------------------------------------

 NO OUTPUT CONTROL FOR STRESS PERIOD   21   TIME STEP   25
 
 SOLVING FOR HEAD 
                                                   Max.-Head-Change                         Max.-Flux-Residual
  Residual-Control   Outer-Iter.   Inner-Iter.     Column Row Layer    Maximum-Head-Change  Column Row Layer    Maximum-Flux-Residual          L2-NORM 
          0                 1           2             5    8     1       0.7596798976E-01       5    8    1         0.4124723448E+01      0.1012347487E+02
          0                 2           2             4    7     1      -0.9938420342E-01       5    8    1        -0.5437097311E+01      0.1322968576E+02
          0                 3           2             4    7     1       0.6767081630E-02       5    8    1         0.3805633378E+00      0.9268677920E+00
          0                 4           2             4    7     1      -0.1481314145E-02       5    8    1        -0.8429590340E-01      0.2062140099E+00
          0                 5           2             4    7     1      -0.1188289516E-02       4    7    1        -0.6738313992E-01      0.1650496673E+00
          0                 6           2             4    7     1      -0.1220669517E-02       5    8    1        -0.6921941215E-01      0.1695512819E+00
          0                 7           2             4    7     1      -0.1296907930E-02       5    8    1        -0.7354178003E-01      0.1801389023E+00
          0                 8           2             4    7     1      -0.1249269184E-02       5    8    1        -0.7083979087E-01      0.1735203488E+00
          0                 9           2             4    7     1      -0.1242961945E-02       5    8    1        -0.7048140865E-01      0.1726425350E+00
          0                10           2             4    7     1      -0.1288234074E-02       5    8    1        -0.7304777921E-01      0.1789288361E+00
                                                   Max.-Head-Change                         Max.-Flux-Residual
  Residual-Control   Outer-Iter.   Inner-Iter.     Column Row Layer    Maximum-Head-Change  Column Row Layer    Maximum-Flux-Residual          L2-NORM 
          0                11           2             4    7     1      -0.1412067449E-02       5    8    1        -0.8006875951E-01      0.1961266183E+00
          0                12           2             4    7     1      -0.1357981555E-02       5    8    1        -0.7700128062E-01      0.1886127656E+00
          0                13           2             4    7     1      -0.1385674082E-02       5    8    1        -0.7857068077E-01      0.1924570410E+00
          0                14           2             4    7     1      -0.1406277899E-02       5    8    1        -0.7973818056E-01      0.1953167959E+00
          0                15           2             4    7     1      -0.1348416366E-02       5    8    1        -0.7645663938E-01      0.1872786801E+00
          0                16           2             4    7     1      -0.1410244720E-02       5    8    1        -0.7996149158E-01      0.1958638247E+00
          0                17           2             4    7     1      -0.1343436293E-02       5    8    1        -0.7617276498E-01      0.1865833285E+00
          0                18           2             4    7     1      -0.1377359254E-02       5    8    1        -0.7809534506E-01      0.1912927225E+00
          0                19           2             4    7     1      -0.1371836833E-02       5    8    1        -0.7778148954E-01      0.1905239079E+00
          0                20           2             4    7     1      -0.1393101311E-02       5    8    1        -0.7898635790E-01      0.1934752258E+00
                                                   Max.-Head-Change                         Max.-Flux-Residual
  Residual-Control   Outer-Iter.   Inner-Iter.     Column Row Layer    Maximum-Head-Change  Column Row Layer    Maximum-Flux-Residual          L2-NORM 
          0                21           2             4    7     1      -0.2951009504E-02       5    8    1        -0.1673142311E+00      0.4098334189E+00
          0                22           1             4    7     1       0.3338117320E-04       4    7    1         0.1945031890E-02      0.4765244184E-02

    ------------------------------------------------
       NWT REQUIRED           22 OUTER ITERATIONS 
       AND A TOTAL OF         43 INNER ITERATIONS.
    ------------------------------------------------

 NO OUTPUT CONTROL FOR STRESS PERIOD   21   TIME STEP   26
 
 SOLVING FOR HEAD 
                                                   Max.-Head-Change                         Max.-Flux-Residual
  Residual-Control   Outer-Iter.   Inner-Iter.     Column Row Layer    Maximum-Head-Change  Column Row Layer    Maximum-Flux-Residual          L2-NORM 
          0                 1           2             5    8     1       0.7627054016E-01       5    8    1         0.4140636957E+01      0.1017449033E+02
          0                 2           2             4    7     1      -0.9974316673E-01       5    8    1        -0.5454733245E+01      0.1327444256E+02
          0                 3           2             4    7     1       0.6791507918E-02       5    8    1         0.3817968886E+00      0.9299921973E+00
          0                 4           2             4    7     1      -0.1625390435E-02       5    8    1        -0.9246117051E-01      0.2262169300E+00
          0                 5           2             4    7     1      -0.1390937971E-02       4    7    1        -0.7887438136E-01      0.1931975579E+00
          0                 6           2             4    7     1      -0.1292840965E-02       5    8    1        -0.7331194307E-01      0.1795757406E+00
          0                 7           2             4    7     1      -0.1223818501E-02       5    8    1        -0.6939718969E-01      0.1699867216E+00
          0                 8           2             4    7     1      -0.1370283332E-02       5    8    1        -0.7770161843E-01      0.1903283829E+00
          0                 9           2             4    7     1      -0.1262936566E-02       5    8    1        -0.7161401530E-01      0.1754167462E+00
          0                10           2             4    7     1      -0.1355845814E-02       5    8    1        -0.7688145711E-01      0.1883193784E+00
                                                   Max.-Head-Change                         Max.-Flux-Residual
  Residual-Control   Outer-Iter.   Inner-Iter.     Column Row Layer    Maximum-Head-Change  Column Row Layer    Maximum-Flux-Residual          L2-NORM 
          0                11           2             4    7     1      -0.1396828763E-02       5    8    1        -0.7920460368E-01      0.1940098252E+00
          0                12           2             4    7     1      -0.1401478809E-02       5    8    1        -0.7946751429E-01      0.1946537931E+00
          0                13           2             4    7     1      -0.1387871666E-02       5    8    1        -0.7869518734E-01      0.1927619840E+00
          0                14           2             4    7     1      -0.1378491794E-02       5    8    1        -0.7816255265E-01      0.1914573117E+00
          0                15           2             4    7     1      -0.1402243059E-02       5    8    1        -0.7950847479E-01      0.1947541407E+00
          0                16           2             4    7     1      -0.1343432183E-02       5    8    1        -0.7617314996E-01      0.1865842787E+00
          0                17           2             4    7     1      -0.1372811510E-02       5    8    1        -0.7783813310E-01      0.1906626842E+00
          0                18           2             4    7     1      -0.1383360321E-02       5    8    1        -0.7843548918E-01      0.1921258768E+00
          0                19           2             4    7     1      -0.1402862932E-02       5    8    1        -0.7954047882E-01      0.1948325301E+00
          0                20           2             4    7     1      -0.1408306776E-02       5    8    1        -0.7984835823E-01      0.1955866626E+00
                                                   Max.-Head-Change                         Max.-Flux-Residual
  Residual-Control   Outer-Iter.   Inner-Iter.     Column Row Layer    Maximum-Head-Change  Column Row Layer    Maximum-Flux-Residual          L2-NORM 
          0                21           2             4    7     1      -0.2038167972E-02       5    8    1        -0.1155587186E+00      0.2830588147E+00
          0                22           1             4    7     1       0.2313645178E-04       4    7    1         0.1348098539E-02      0.3302746310E-02

    ------------------------------------------------
       NWT REQUIRED           22 OUTER ITERATIONS 
       AND A TOTAL OF         43 INNER ITERATIONS.
    ------------------------------------------------

 NO OUTPUT CONTROL FOR STRESS PERIOD   21   TIME STEP   27
 
 SOLVING FOR HEAD 
                                                   Max.-Head-Change                         Max.-Flux-Residual
  Residual-Control   Outer-Iter.   Inner-Iter.     Column Row Layer    Maximum-Head-Change  Column Row Layer    Maximum-Flux-Residual          L2-NORM 
          0                 1           2             5    8     1       0.7656942825E-01       5    8    1         0.4156359242E+01      0.1022470065E+02
          0                 2           2             4    7     1      -0.1000953996E+00       5    8    1        -0.5472046314E+01      0.1331836931E+02
          0                 3           2             4    7     1       0.6815501825E-02       5    8    1         0.3830092694E+00      0.9330621842E+00
          0                 4           2             4    7     1      -0.1528594043E-02       5    8    1        -0.8696752504E-01      0.2127661992E+00
          0                 5           2             4    7     1      -0.1268613941E-02       4    7    1        -0.7193776939E-01      0.1762064040E+00
          0                 6           2             4    7     1      -0.1354906190E-02       5    8    1        -0.7683115134E-01      0.1881960976E+00
          0                 7           2             4    7     1      -0.1307006452E-02       5    8    1        -0.7411426487E-01      0.1815410956E+00
          0                 8           2             4    7     1      -0.1305268306E-02       5    8    1        -0.7401493443E-01      0.1812978261E+00
          0                 9           2             4    7     1      -0.1362524166E-02       5    8    1        -0.7726080952E-01      0.1892485629E+00
          0                10           2             4    7     1      -0.1342143528E-02       5    8    1        -0.7610444627E-01      0.1864160185E+00
                                                   Max.-Head-Change                         Max.-Flux-Residual
  Residual-Control   Outer-Iter.   Inner-Iter.     Column Row Layer    Maximum-Head-Change  Column Row Layer    Maximum-Flux-Residual          L2-NORM 
          0                11           2             4    7     1      -0.1396391693E-02       5    8    1        -0.7917967582E-01      0.1939487788E+00
          0                12           2             4    7     1      -0.1287680176E-02       5    8    1        -0.7301479466E-01      0.1788479241E+00
          0                13           2             4    7     1      -0.1364752319E-02       5    8    1        -0.7738407594E-01      0.1895505194E+00
          0                14           2             4    7     1      -0.1357184603E-02       5    8    1        -0.7695427686E-01      0.1884976672E+00
          0                15           2             4    7     1      -0.1383502997E-02       5    8    1        -0.7844576374E-01      0.1921510572E+00
          0                16           2             4    7     1      -0.1405747406E-02       5    8    1        -0.7970625609E-01      0.1952385992E+00
          0                17           2             4    7     1      -0.1411484616E-02       5    8    1        -0.8003077755E-01      0.1960334945E+00
          0                18           2             4    7     1      -0.1412933463E-02       5    8    1        -0.8011213697E-01      0.1962327798E+00
          0                19           2             4    7     1      -0.1402553644E-02       5    8    1        -0.7952283181E-01      0.1947892820E+00
          0                20           2             4    7     1      -0.3289554113E-02       5    8    1        -0.1865099034E+00      0.4568530141E+00
          0                21           1             4    7     1       0.3738318627E-04       4    7    1         0.2178233260E-02      0.5336563732E-02

    ------------------------------------------------
       NWT REQUIRED           21 OUTER ITERATIONS 
       AND A TOTAL OF         41 INNER ITERATIONS.
    ------------------------------------------------

 NO OUTPUT CONTROL FOR STRESS PERIOD   21   TIME STEP   28
 
 SOLVING FOR HEAD 
                                                   Max.-Head-Change                         Max.-Flux-Residual
  Residual-Control   Outer-Iter.   Inner-Iter.     Column Row Layer    Maximum-Head-Change  Column Row Layer    Maximum-Flux-Residual          L2-NORM 
          0                 1           2             5    8     1       0.7686455229E-01       5    8    1         0.4171884350E+01      0.1027411432E+02
          0                 2           2             4    7     1      -0.1004411329E+00       5    8    1        -0.5489046887E+01      0.1336149342E+02
          0                 3           2             4    7     1       0.6839027214E-02       5    8    1         0.3841983451E+00      0.9360725249E+00
          0                 4           2             4    7     1      -0.1673837464E-02       5    8    1        -0.9519916083E-01      0.2329315914E+00
          0                 5           2             4    7     1      -0.1246980599E-02       4    7    1        -0.7071092564E-01      0.1732014804E+00
          0                 6           2             4    7     1      -0.1343056942E-02       5    8    1        -0.7615909098E-01      0.1865499151E+00
          0                 7           2             4    7     1      -0.1310926337E-02       5    8    1        -0.7433641008E-01      0.1820852463E+00
          0                 8           2             4    7     1      -0.1330204537E-02       5    8    1        -0.7542879880E-01      0.1847610687E+00
          0                 9           2             4    7     1      -0.1249373119E-02       5    8    1        -0.7084465250E-01      0.1735322342E+00
          0                10           2             4    7     1      -0.1366744910E-02       5    8    1        -0.7749920380E-01      0.1898325518E+00
                                                   Max.-Head-Change                         Max.-Flux-Residual
  Residual-Control   Outer-Iter.   Inner-Iter.     Column Row Layer    Maximum-Head-Change  Column Row Layer    Maximum-Flux-Residual          L2-NORM 
          0                11           2             4    7     1      -0.1305518971E-02       5    8    1        -0.7402687766E-01      0.1813270309E+00
          0                12           2             4    7     1      -0.1317138541E-02       5    8    1        -0.7468494552E-01      0.1829390129E+00
          0                13           2             4    7     1      -0.1310388911E-02       5    8    1        -0.7430150577E-01      0.1819997701E+00
          0                14           2             4    7     1      -0.1409726751E-02       5    8    1        -0.7993327957E-01      0.1957947468E+00
          0                15           2             4    7     1      -0.1395188196E-02       5    8    1        -0.7910822693E-01      0.1937737111E+00
          0                16           2             4    7     1      -0.1384676527E-02       5    8    1        -0.7851142446E-01      0.1923118643E+00
          0                17           2             4    7     1      -0.1364349423E-02       5    8    1        -0.7735811601E-01      0.1894868550E+00
          0                18           2             4    7     1      -0.1391067583E-02       5    8    1        -0.7887221150E-01      0.1931956316E+00
          0                19           2             4    7     1      -0.1411885476E-02       5    8    1        -0.8005178038E-01      0.1960849517E+00
          0                20           2             4    7     1      -0.3101168292E-02       5    8    1        -0.1758286513E+00      0.4306893893E+00
          0                21           1             4    7     1       0.3534193095E-04       4    7    1         0.2059291323E-02      0.5045143626E-02

    ------------------------------------------------
       NWT REQUIRED           21 OUTER ITERATIONS 
       AND A TOTAL OF         41 INNER ITERATIONS.
    ------------------------------------------------

 NO OUTPUT CONTROL FOR STRESS PERIOD   21   TIME STEP   29
 
 SOLVING FOR HEAD 
                                                   Max.-Head-Change                         Max.-Flux-Residual
  Residual-Control   Outer-Iter.   Inner-Iter.     Column Row Layer    Maximum-Head-Change  Column Row Layer    Maximum-Flux-Residual          L2-NORM 
          0                 1           2             5    8     1       0.7715603783E-01       5    8    1         0.4187213686E+01      0.1032274767E+02
          0                 2           2             4    7     1      -0.1007805750E+00       5    8    1        -0.5505745599E+01      0.1340384297E+02
          0                 3           2             4    7     1       0.6862150125E-02       5    8    1         0.3853677211E+00      0.9390322919E+00
          0                 4           2             4    7     1      -0.1576358637E-02       5    8    1        -0.8966703999E-01      0.2193863216E+00
          0                 5           2             4    7     1      -0.1353011035E-02       4    7    1        -0.7672331697E-01      0.1879287648E+00
          0                 6           2             4    7     1      -0.1283506645E-02       5    8    1        -0.7278224974E-01      0.1782782933E+00
          0                 7           2             4    7     1      -0.1247968095E-02       5    8    1        -0.7076623023E-01      0.1733401788E+00
          0                 8           2             4    7     1      -0.1254726157E-02       5    8    1        -0.7114871512E-01      0.1742770963E+00
          0                 9           2             4    7     1      -0.1319652909E-02       5    8    1        -0.7482957870E-01      0.1832933268E+00
          0                10           2             4    7     1      -0.1315858971E-02       5    8    1        -0.7461376020E-01      0.1827646311E+00
                                                   Max.-Head-Change                         Max.-Flux-Residual
  Residual-Control   Outer-Iter.   Inner-Iter.     Column Row Layer    Maximum-Head-Change  Column Row Layer    Maximum-Flux-Residual          L2-NORM 
          0                11           2             4    7     1      -0.1390558423E-02       5    8    1        -0.7884863917E-01      0.1931379279E+00
          0                12           2             4    7     1      -0.1318865836E-02       5    8    1        -0.7478282948E-01      0.1831787112E+00
          0                13           2             4    7     1      -0.1332150082E-02       5    8    1        -0.7553526482E-01      0.1850218520E+00
          0                14           2             4    7     1      -0.1358908715E-02       5    8    1        -0.7705175768E-01      0.1887364726E+00
          0                15           2             4    7     1      -0.1348862259E-02       5    8    1        -0.7648138164E-01      0.1873393221E+00
          0                16           2             4    7     1      -0.1413620835E-02       5    8    1        -0.8015238778E-01      0.1963314218E+00
          0                17           2             4    7     1      -0.1367732239E-02       5    8    1        -0.7754981467E-01      0.1899563954E+00
          0                18           2             4    7     1      -0.1378411432E-02       5    8    1        -0.7815450297E-01      0.1914376110E+00
          0                19           2             4    7     1      -0.1391983301E-02       5    8    1        -0.7892323314E-01      0.1933205976E+00
          0                20           2             4    7     1      -0.2997267600E-02       5    8    1        -0.1699374796E+00      0.4162590409E+00
          0                21           1             4    7     1       0.3424918608E-04       4    7    1         0.1995616951E-02      0.4889131760E-02

    ------------------------------------------------
       NWT REQUIRED           21 OUTER ITERATIONS 
       AND A TOTAL OF         41 INNER ITERATIONS.
    ------------------------------------------------

 NO OUTPUT CONTROL FOR STRESS PERIOD   21   TIME STEP   30



 STREAM LISTING     PERIOD     21   STEP       30

 LAYER ROW COL. STREAM  RCH.  FLOW INTO     FLOW TO   FLOW OUT OF   OVRLND.     DIRECT     STREAM       STREAM     STREAM     STREAM   STREAMBED  STREAMBED
                SEG.NO.  NO.  STRM. RCH.    AQUIFER    STRM. RCH.    RUNOFF     PRECIP       ET          HEAD       DEPTH      WIDTH   CONDCTNC.   GRADIENT

   1    1    1     1     1    1.3875E+01  1.7894E-01   1.3696E+01  0.000E+00  0.000E+00  0.000E+00  1.09404E+03  9.877E-01  9.972E+00  4.487E-02  1.329E+00
   1    2    2     1     2    1.3696E+01  2.7574E-01   1.3421E+01  0.000E+00  0.000E+00  0.000E+00  1.08904E+03  9.829E-01  9.890E+00  6.923E-02  1.328E+00
   1    3    3     1     3    1.3421E+01  2.3381E-01   1.3187E+01  0.000E+00  0.000E+00  0.000E+00  1.08340E+03  9.775E-01  9.797E+00  5.878E-02  1.326E+00
   1    3    4     1     4    1.3187E+01  2.1419E-01   1.2973E+01  0.000E+00  0.000E+00  0.000E+00  1.07838E+03  9.727E-01  9.715E+00  5.392E-02  1.324E+00
   1    4    5     2     1    1.0973E+01  2.9101E-01   1.0682E+01  0.000E+00  0.000E+00  0.000E+00  1.07266E+03  7.309E-01  1.200E+01  7.800E-02  1.244E+00
   1    5    6     2     2    1.0682E+01  2.2323E-01   1.0458E+01  0.000E+00  0.000E+00  0.000E+00  1.06723E+03  7.204E-01  1.200E+01  6.000E-02  1.240E+00
   1    6    6     2     3    1.0458E+01  2.2268E-01   1.0236E+01  0.000E+00  0.000E+00  0.000E+00  1.06250E+03  7.113E-01  1.200E+01  6.000E-02  1.237E+00
   1    7    6     2     4    1.0236E+01  2.2212E-01   1.0013E+01  0.000E+00  0.000E+00  0.000E+00  1.05778E+03  7.021E-01  1.200E+01  6.000E-02  1.234E+00
   1    8    6     2     5    1.0013E+01  2.2157E-01   9.7919E+00  0.000E+00  0.000E+00  0.000E+00  1.05305E+03  6.928E-01  1.200E+01  6.000E-02  1.231E+00
   1    3    5     3     1    2.0000E+00  2.8252E-01   1.7175E+00  0.000E+00  0.000E+00  0.000E+00  1.07555E+03  1.909E+00  9.636E+00  7.227E-02  1.955E+00
   1    3    6     3     2    1.7175E+00  2.4905E-01   1.4684E+00  0.000E+00  0.000E+00  0.000E+00  1.07264E+03  1.727E+00  8.909E+00  6.682E-02  1.864E+00
   1    3    7     3     3    1.4684E+00  1.9718E-01   1.2712E+00  0.000E+00  0.000E+00  0.000E+00  1.06987E+03  1.555E+00  8.218E+00  5.547E-02  1.777E+00
   1    4    8     3     4    1.2712E+00  2.2567E-01   1.0456E+00  0.000E+00  0.000E+00  0.000E+00  1.06682E+03  1.364E+00  7.455E+00  6.709E-02  1.682E+00
   1    5    8     3     5    1.0456E+00  1.5790E-01   8.8768E-01  0.000E+00  0.000E+00  0.000E+00  1.06362E+03  1.164E+00  6.655E+00  4.991E-02  1.582E+00
   1    6    8     3     6    8.8768E-01  5.5980E-02   8.3170E-01  0.000E+00  0.000E+00  0.000E+00  1.06158E+03  1.036E+00  6.145E+00  1.844E-02  1.518E+00
   1    5   10     4     1    1.0000E+01  9.0919E-02   9.9091E+00  0.000E+00  0.000E+00  0.000E+00  1.07836E+03  6.368E-01  1.000E+01  2.500E-02  1.212E+00
   1    5    9     4     2    9.9091E+00  1.8158E-01   9.7275E+00  0.000E+00  0.000E+00  0.000E+00  1.07154E+03  6.315E-01  1.000E+01  5.000E-02  1.211E+00
   1    6    8     4     3    9.7275E+00  1.2689E-01   9.6006E+00  0.000E+00  0.000E+00  0.000E+00  1.06381E+03  6.256E-01  1.000E+01  3.500E-02  1.209E+00
   1    6    8     5     1    1.0432E+01  2.2686E-01   1.0205E+01  0.000E+00  0.000E+00  0.000E+00  1.05868E+03  6.790E-01  1.542E+01  6.166E-02  1.226E+00
   1    7    7     5     2    1.0205E+01  2.7894E-01   9.9265E+00  0.000E+00  0.000E+00  0.000E+00  1.05417E+03  6.732E-01  1.519E+01  7.594E-02  1.224E+00
   1    8    7     5     3    9.9265E+00  1.9221E-01   9.7343E+00  0.000E+00  0.000E+00  0.000E+00  1.04992E+03  6.676E-01  1.497E+01  5.241E-02  1.223E+00
   1    8    6     5     4    9.7343E+00  1.3577E-01   9.5985E+00  0.000E+00  0.000E+00  0.000E+00  1.04691E+03  6.637E-01  1.482E+01  3.706E-02  1.221E+00
   1    9    6     6     1    9.5985E+00  2.2097E-01   9.3776E+00  0.000E+00  0.000E+00  0.000E+00  1.04341E+03  6.828E-01  1.200E+01  6.000E-02  1.228E+00
   1   10    7     6     2    9.3776E+00  2.2039E-01   9.1572E+00  0.000E+00  0.000E+00  0.000E+00  1.03885E+03  6.732E-01  1.200E+01  6.000E-02  1.224E+00
   1   11    7     6     3    9.1572E+00  2.1981E-01   8.9374E+00  0.000E+00  0.000E+00  0.000E+00  1.03430E+03  6.636E-01  1.200E+01  6.000E-02  1.221E+00
   1   12    7     6     4    8.9374E+00  2.1923E-01   8.7181E+00  0.000E+00  0.000E+00  0.000E+00  1.02974E+03  6.539E-01  1.200E+01  6.000E-02  1.218E+00
   1   13    7     6     5    8.7181E+00 -4.7819E-02   8.7659E+00  0.000E+00  0.000E+00  0.000E+00  1.02656E+03  6.500E-01  1.200E+01  2.400E-01 -6.642E-02
   1   14    9     7     1    1.5000E+02  1.3726E+00   1.4863E+02  0.000E+00  0.000E+00  0.000E+00  1.03987E+03  2.288E+00  5.529E+01  5.593E-01  8.181E-01
   1   13    8     7     2    1.4863E+02  1.9372E+00   1.4669E+02  0.000E+00  0.000E+00  0.000E+00  1.03478E+03  2.279E+00  5.525E+01  6.147E-01  1.050E+00
   1   13    7     7     3    1.4669E+02  1.6362E+00   1.4505E+02  0.000E+00  0.000E+00  0.000E+00  1.02969E+03  2.269E+00  5.521E+01  5.584E-01  9.768E-01
   1   13    6     8     1    1.5382E+02  9.8822E-01   1.5283E+02  0.000E+00  0.000E+00  0.000E+00  1.02472E+03  2.840E+00  4.118E+01  4.197E-01  7.849E-01
   1   13    5     8     2    1.5283E+02  2.4923E-01   1.5258E+02  0.000E+00  0.000E+00  0.000E+00  1.01846E+03  2.836E+00  4.112E+01  4.190E-01  1.983E-01
   1   13    4     8     3    1.5258E+02 -2.1655E+00   1.5475E+02  0.000E+00  0.000E+00  0.000E+00  1.01222E+03  2.842E+00  4.122E+01  4.200E+00 -1.719E-01
   1   13    3     8     4    1.5475E+02 -3.5036E+00   1.5825E+02  0.000E+00  0.000E+00  0.000E+00  1.00599E+03  2.862E+00  4.150E+01  4.229E+00 -2.762E-01
   1   13    2     8     5    1.5825E+02 -2.5431E+00   1.6079E+02  0.000E+00  0.000E+00  0.000E+00  9.99758E+02  2.883E+00  4.180E+01  4.259E+00 -1.990E-01
   1   13    1     8     6    1.6079E+02 -1.9712E+00   1.6277E+02  0.000E+00  0.000E+00  0.000E+00  9.94773E+02  2.898E+00  4.202E+01  2.569E+00 -2.558E-01
   1    8    6     9     1    9.7919E+00  0.0000E+00   9.7919E+00  0.000E+00  0.000E+00  0.000E+00  1.08099E+03  2.238E+00  4.000E+00  0.000E+00  1.746E+00
   1    8    5     9     2    9.7919E+00  0.0000E+00   9.7919E+00  0.000E+00  0.000E+00  0.000E+00  1.08049E+03  2.238E+00  4.000E+00  0.000E+00  1.746E+00





UNSATURATED ZONE PACKAGE VOLUMETRIC BUDGET FOR  TIME STEP    30 STRESS PERIOD   21
  ------------------------------------------------------------------------------



     CUMULATIVE VOLUMES      L**3       RATES FOR THIS TIME STEP      L**3/T
     ------------------                 ------------------------

           IN:                                      IN:
           ---                                      ---
        INFILTRATION =   826592862.6861          INFILTRATION =          49.5500

          OUT:                                     OUT:
          ----                                     ----
              UZF ET =   822138845.4556                UZF ET =          49.5675
        UZF RECHARGE =       73224.0000          UZF RECHARGE =       0.0000E+00

            IN - OUT =     4380793.2305              IN - OUT =      -1.7458E-02

          STORAGE:                                 STORAGE:
          --------                                 --------
      STORAGE CHANGE =     4380791.8264        STORAGE CHANGE =      -1.7451E-02

 PERCENT DISCREPANCY IS DIFFERENCE BETWEEN IN-OUT MINUS CHANGE IN STORAGE
 DIVIDED BY THE AVERAGE OF IN AND OUT TIMES 100

 PERCENT DISCREPANCY =           0.00     PERCENT DISCREPANCY =          -0.00






1
  VOLUMETRIC BUDGET FOR AGRICULTURAL FIELDS AT  END OF TIME STEP   30, STRESS PERIOD  21
  ------------------------------------------------------------------------------

     CUMULATIVE VOLUMES      L**3       RATES FOR THIS TIME STEP      L**3/T
     ------------------                 ------------------------

           IN:                                      IN:
           ---                                      ---
           AG WELLS      =   413860160.0000             AG WELLS      =          38.9104
      DIVERSION SEGMENTS =   368111264.0000        DIVERSION SEGMENTS =           9.7919
           GW IRRIGATION =           0.0000             GW IRRIGATION =           0.0000
           SW IRRIGATION =           0.0000             SW IRRIGATION =           0.0000
        SYSTEM LOSSES GW =           0.0000          SYSTEM LOSSES GW =           0.0000
        SYSTEM LOSSES SW =           0.0000          SYSTEM LOSSES SW =           0.0000

                TOTAL IN =   781971456.0000                  TOTAL IN =          48.7024

          OUT:                                     OUT:
          ----                                     ----
           AG WELLS      =           0.0000             AG WELLS      =           0.0000
      DIVERSION SEGMENTS =           0.0000        DIVERSION SEGMENTS =           0.0000
           GW IRRIGATION =   413860160.0000             GW IRRIGATION =          38.9104
           SW IRRIGATION =   368117888.0000             SW IRRIGATION =           9.7921
        SYSTEM LOSSES GW =           0.0000          SYSTEM LOSSES GW =           0.0000
        SYSTEM LOSSES SW =           0.0000          SYSTEM LOSSES SW =           0.0000

               TOTAL OUT =   781978048.0000                 TOTAL OUT =          48.7025

                IN - OUT =       -6592.0000                  IN - OUT =      -1.9455E-04

     PERCENT DISCREPANCY =          -0.00         PERCENT DISCREPANCY =          -0.00



1
  VOLUMETRIC BUDGET FOR ENTIRE MODEL AT END OF TIME STEP   30, STRESS PERIOD  21
  ------------------------------------------------------------------------------

     CUMULATIVE VOLUMES      L**3       RATES FOR THIS TIME STEP      L**3/T
     ------------------                 ------------------------

           IN:                                      IN:
           ---                                      ---
             STORAGE     =   509431712.0000               STORAGE     =          37.7569
       CONSTANT HEAD     =           0.0000         CONSTANT HEAD     =           0.0000
     HEAD DEP BOUNDS     =    15174852.0000       HEAD DEP BOUNDS     =           0.2883
      STREAM LEAKAGE     =   619513792.0000        STREAM LEAKAGE     =          11.5487
        UZF RECHARGE     =       73223.9531          UZF RECHARGE     =           0.0000
               GW ET     =           0.0000                 GW ET     =           0.0000
     SURFACE LEAKAGE     =           0.0000       SURFACE LEAKAGE     =           0.0000
           AG WELLS      =           0.0000             AG WELLS      =           0.0000

                TOTAL IN =  1144193536.0000                  TOTAL IN =          49.5938

          OUT:                                     OUT:
          ----                                     ----
             STORAGE     =   173244496.0000               STORAGE     =           0.1656
       CONSTANT HEAD     =           0.0000         CONSTANT HEAD     =           0.0000
     HEAD DEP BOUNDS     =    15174973.0000       HEAD DEP BOUNDS     =           0.2865
      STREAM LEAKAGE     =   541920896.0000        STREAM LEAKAGE     =          10.2312
        UZF RECHARGE     =           0.0000          UZF RECHARGE     =           0.0000
               GW ET     =           0.0000                 GW ET     =           0.0000
     SURFACE LEAKAGE     =           0.0000       SURFACE LEAKAGE     =           0.0000
           AG WELLS      =   413860160.0000             AG WELLS      =          38.9104

               TOTAL OUT =  1144200448.0000                 TOTAL OUT =          49.5937

                IN - OUT =       -6912.0000                  IN - OUT =       1.6403E-04

     PERCENT DISCREPANCY =          -0.00         PERCENT DISCREPANCY =           0.00






         TIME SUMMARY AT END OF TIME STEP   30 IN STRESS PERIOD   21
                    SECONDS     MINUTES      HOURS       DAYS        YEARS
                    -----------------------------------------------------------
   TIME STEP LENGTH  87667.      1461.1      24.352      1.0147     2.77799E-03
 STRESS PERIOD TIME 2.63000E+06  43833.      730.56      30.440     8.33397E-02
         TOTAL TIME 5.26866E+07 8.78110E+05  14635.      609.80      1.6695    
1
1
                            STRESS PERIOD NO.   22, LENGTH =   2630000.    
                            -----------------------------------------------

                              NUMBER OF TIME STEPS =    30

                               MULTIPLIER FOR DELT =     1.000

                            INITIAL TIME STEP SIZE =   87666.66    

 REUSING NON-PARAMETER GHB CELLS FROM LAST STRESS PERIOD

      2 GHB CELLS

 REUSING STREAM SEGMENT DATA FROM LAST STRESS PERIOD



            AREAL INFILTRATION RATE
 READING ON UNIT   19 WITH FORMAT: (FREE)              

            1           2           3           4           5           6           7           8           9          10
 ........................................................................................................................
   1   1.0000E-10  2.0000E-10   0.000       0.000       0.000       0.000       0.000       0.000       0.000       0.000    
   2   2.0000E-10  1.0000E-10  2.0000E-10   0.000       0.000      8.0000E-10  8.0000E-10  5.0000E-10   0.000       0.000    
   3    0.000      5.0000E-10  1.0000E-10  1.0000E-10  8.0000E-10  8.0000E-10  5.0000E-10  5.0000E-10   0.000       0.000    
   4   8.0000E-10  5.0000E-10  1.0000E-10  1.0000E-10  1.0000E-10  1.0000E-10  1.0000E-10  1.0000E-10  2.0000E-10   0.000    
   5   8.0000E-10  5.0000E-10  1.0000E-10  1.0000E-10  1.0000E-10  1.0000E-10  1.0000E-10  1.0000E-10  1.0000E-10  1.0000E-10
   6   8.0000E-10  5.0000E-10  5.0000E-10  2.0000E-10  2.0000E-10  1.0000E-10  1.0000E-10  1.0000E-10  1.0000E-10  5.0000E-10
   7   8.0000E-10  5.0000E-10  5.0000E-10  2.0000E-10  2.0000E-10  1.0000E-10  1.0000E-10  2.0000E-10  2.0000E-10   0.000    
   8    0.000      5.0000E-10  5.0000E-10  2.0000E-10  2.0000E-10  1.0000E-10  1.0000E-10  2.0000E-10  5.0000E-10   0.000    
   9    0.000      5.0000E-10  5.0000E-10  2.0000E-10  2.0000E-10  1.0000E-10  1.0000E-10  2.0000E-10  5.0000E-10   0.000    
  10    0.000      5.0000E-10  5.0000E-10  2.0000E-10  2.0000E-10  1.0000E-10  1.0000E-10  2.0000E-10  5.0000E-10  8.0000E-10
  11    0.000      1.0000E-10  1.0000E-10  1.0000E-10  1.0000E-10  1.0000E-10  1.0000E-10  2.0000E-10  5.0000E-10   0.000    
  12   1.0000E-10  1.0000E-10  1.0000E-10  1.0000E-10  1.0000E-10  1.0000E-10  1.0000E-10  1.0000E-10  2.0000E-10   0.000    
  13   1.0000E-10  1.0000E-10  2.0000E-10  2.0000E-10  2.0000E-10  2.0000E-10  2.0000E-10  1.0000E-10  1.0000E-10   0.000    
  14    0.000      2.0000E-10  5.0000E-10  5.0000E-10  5.0000E-10  5.0000E-10  5.0000E-10  2.0000E-10  1.0000E-10   0.000    
  15    0.000       0.000      8.0000E-10  8.0000E-10  8.0000E-10  8.0000E-10   0.000       0.000       0.000       0.000    

                  ET RATE =  7.500000E-08

 USING ET EXTINCTION DEPTH FROM PREVIOUS STRESS PERIOD. CURRENT PERIOD IS:      22

 USING EXTINCTION WATER CONTENT FROM PREVIOUS STRESS PERIOD. CURRENT PERIOD IS:      22

 USING AIR ENTRY PRESSURE FROM PREVIOUS STRESS PERIOD. CURRENT PERIOD IS:      22

 USING ROOT PRESSURE HEAD FROM PREVIOUS STRESS PERIOD. CURRENT PERIOD IS:      22

 USING ROOT ACTIVITY FROM PREVIOUS STRESS PERIOD. CURRENT PERIOD IS:      22

 PROCESSING AG STRESS PERIOD DATA

 READING AG STRESS PERIOD DATA

 READING IRRIGATION SEGMENT

 READING IRRIGATION WELL

 READING SUPPLEMENTAL WELL

 END PROCESSING AG STRESS PERIOD DATA OPTIONS
 
 SOLVING FOR HEAD 
                                                   Max.-Head-Change                         Max.-Flux-Residual
  Residual-Control   Outer-Iter.   Inner-Iter.     Column Row Layer    Maximum-Head-Change  Column Row Layer    Maximum-Flux-Residual          L2-NORM 
          0                 1           2             5    8     1       0.7744129487E-01       5    8    1         0.4202362587E+01      0.1037198203E+02
          0                 2           2             5    6     1      -0.2320176146E-01       5    8    1        -0.1282589109E+01      0.3079666195E+01
          0                 3           2             5    6     1       0.1579954178E-02       5    8    1         0.8978129022E-01      0.2155767827E+00
          0                 4           1             5    6     1      -0.6286773978E-04       5    8    1        -0.3672059826E-02      0.8817102551E-02

    ------------------------------------------------
       NWT REQUIRED            4 OUTER ITERATIONS 
       AND A TOTAL OF          7 INNER ITERATIONS.
    ------------------------------------------------

 NO OUTPUT CONTROL FOR STRESS PERIOD   22   TIME STEP    1
 
 SOLVING FOR HEAD 
                                                   Max.-Head-Change                         Max.-Flux-Residual
  Residual-Control   Outer-Iter.   Inner-Iter.     Column Row Layer    Maximum-Head-Change  Column Row Layer    Maximum-Flux-Residual          L2-NORM 
          0                 1           2             5    8     1       0.7469176404E-01       5    8    1         0.4049933675E+01      0.1010172681E+02
          0                 2           2             5    8     1      -0.7476858288E-02       5    8    1        -0.4166318583E+00      0.1036079274E+01
          0                 3           2             4    7     1      -0.8539389259E-02       4    7    1        -0.4583672722E+00      0.1120788978E+01
          0                 4           2             4    7     1       0.9408812613E-02       4    7    1         0.5190707922E+00      0.1271069987E+01
          0                 5           2             4    7     1      -0.3854786501E-03       4    7    1        -0.2185966442E-01      0.5357876860E-01
          0                 6           1             4   13     1      -0.1724254920E-04       4   13    1        -0.1071093210E-02      0.2211174866E-02

    ------------------------------------------------
       NWT REQUIRED            6 OUTER ITERATIONS 
       AND A TOTAL OF         11 INNER ITERATIONS.
    ------------------------------------------------

 NO OUTPUT CONTROL FOR STRESS PERIOD   22   TIME STEP    2
 
 SOLVING FOR HEAD 
                                                   Max.-Head-Change                         Max.-Flux-Residual
  Residual-Control   Outer-Iter.   Inner-Iter.     Column Row Layer    Maximum-Head-Change  Column Row Layer    Maximum-Flux-Residual          L2-NORM 
          0                 1           2             5    6     1       0.7178874696E-01       5    8    1         0.3881642757E+01      0.9795897533E+01
          0                 2           2             5    6     1      -0.3142118800E-01       5    8    1        -0.1731560331E+01      0.4206833332E+01
          0                 3           2             4    7     1       0.9482831967E-02       5    8    1         0.5276441010E+00      0.1289316694E+01
          0                 4           2             4    7     1      -0.3773312185E-03       5    6    1        -0.2158039310E-01      0.5278721963E-01
          0                 5           1             4    7     1       0.4652657071E-05       5    6    1         0.2734900736E-03      0.6787459387E-03

    ------------------------------------------------
       NWT REQUIRED            5 OUTER ITERATIONS 
       AND A TOTAL OF          9 INNER ITERATIONS.
    ------------------------------------------------

 NO OUTPUT CONTROL FOR STRESS PERIOD   22   TIME STEP    3
 
 SOLVING FOR HEAD 
                                                   Max.-Head-Change                         Max.-Flux-Residual
  Residual-Control   Outer-Iter.   Inner-Iter.     Column Row Layer    Maximum-Head-Change  Column Row Layer    Maximum-Flux-Residual          L2-NORM 
          0                 1           2             5    6     1       0.6955093485E-01       5    6    1         0.3757255670E+01      0.9558390582E+01
          0                 2           2             5    7     1      -0.2393332255E-01       5    6    1        -0.1319316411E+01      0.3215267186E+01
          0                 3           2             5    7     1       0.1630466680E-02       5    6    1         0.9239105216E-01      0.2291463003E+00
          0                 4           1             5    7     1      -0.6487785710E-04       5    6    1        -0.3778799297E-02      0.9671332099E-02

    ------------------------------------------------
       NWT REQUIRED            4 OUTER ITERATIONS 
       AND A TOTAL OF          7 INNER ITERATIONS.
    ------------------------------------------------

 NO OUTPUT CONTROL FOR STRESS PERIOD   22   TIME STEP    4
 
 SOLVING FOR HEAD 
                                                   Max.-Head-Change                         Max.-Flux-Residual
  Residual-Control   Outer-Iter.   Inner-Iter.     Column Row Layer    Maximum-Head-Change  Column Row Layer    Maximum-Flux-Residual          L2-NORM 
          0                 1           2             5    6     1       0.6744263091E-01       5    6    1         0.3641133352E+01      0.9333587197E+01
          0                 2           2             5    7     1      -0.2385900288E-01       5    6    1        -0.1309389084E+01      0.3199923796E+01
          0                 3           2             5    7     1       0.1624876259E-02       5    6    1         0.9166663226E-01      0.2280072906E+00
          0                 4           1             5    7     1      -0.6465541065E-04       5    6    1        -0.3749170493E-02      0.9625021145E-02

    ------------------------------------------------
       NWT REQUIRED            4 OUTER ITERATIONS 
       AND A TOTAL OF          7 INNER ITERATIONS.
    ------------------------------------------------

 NO OUTPUT CONTROL FOR STRESS PERIOD   22   TIME STEP    5
 
 SOLVING FOR HEAD 
                                                   Max.-Head-Change                         Max.-Flux-Residual
  Residual-Control   Outer-Iter.   Inner-Iter.     Column Row Layer    Maximum-Head-Change  Column Row Layer    Maximum-Flux-Residual          L2-NORM 
          0                 1           2             5    6     1       0.6545285427E-01       5    6    1         0.3531609117E+01      0.9120329152E+01
          0                 2           2             5    7     1      -0.2376916278E-01       5    6    1        -0.1299185155E+01      0.3183196290E+01
          0                 3           2             5    7     1       0.1618492043E-02       5    6    1         0.9093751301E-01      0.2268085660E+00
          0                 4           1             5    7     1      -0.6440137780E-04       5    6    1        -0.3719349483E-02      0.9576742070E-02

    ------------------------------------------------
       NWT REQUIRED            4 OUTER ITERATIONS 
       AND A TOTAL OF          7 INNER ITERATIONS.
    ------------------------------------------------

 NO OUTPUT CONTROL FOR STRESS PERIOD   22   TIME STEP    6
 
 SOLVING FOR HEAD 
                                                   Max.-Head-Change                         Max.-Flux-Residual
  Residual-Control   Outer-Iter.   Inner-Iter.     Column Row Layer    Maximum-Head-Change  Column Row Layer    Maximum-Flux-Residual          L2-NORM 
          0                 1           2             5    7     1       0.6394338613E-01       5    6    1         0.3428217890E+01      0.8917753258E+01
          0                 2           2             5    7     1      -0.2367349756E-01       5    6    1        -0.1289178704E+01      0.3166284386E+01
          0                 3           2             5    7     1       0.1611852333E-02       5    6    1         0.9023008517E-01      0.2256156595E+00
          0                 4           1             5    7     1      -0.6413717850E-04       5    6    1        -0.3690415651E-02      0.9528390918E-02

    ------------------------------------------------
       NWT REQUIRED            4 OUTER ITERATIONS 
       AND A TOTAL OF          7 INNER ITERATIONS.
    ------------------------------------------------

 NO OUTPUT CONTROL FOR STRESS PERIOD   22   TIME STEP    7
 
 SOLVING FOR HEAD 
                                                   Max.-Head-Change                         Max.-Flux-Residual
  Residual-Control   Outer-Iter.   Inner-Iter.     Column Row Layer    Maximum-Head-Change  Column Row Layer    Maximum-Flux-Residual          L2-NORM 
          0                 1           2             5    7     1       0.6291649563E-01       5    7    1         0.3337044254E+01      0.8725073027E+01
          0                 2           2             4    7     1      -0.2358647479E-01       5    7    1        -0.1280211690E+01      0.3149693540E+01
          0                 3           2             4    7     1       0.1605866323E-02       5    7    1         0.8959912883E-01      0.2244545483E+00
          0                 4           1             4    7     1      -0.6389893275E-04       5    7    1        -0.3664609991E-02      0.9481498789E-02

    ------------------------------------------------
       NWT REQUIRED            4 OUTER ITERATIONS 
       AND A TOTAL OF          7 INNER ITERATIONS.
    ------------------------------------------------

 NO OUTPUT CONTROL FOR STRESS PERIOD   22   TIME STEP    8
 
 SOLVING FOR HEAD 
                                                   Max.-Head-Change                         Max.-Flux-Residual
  Residual-Control   Outer-Iter.   Inner-Iter.     Column Row Layer    Maximum-Head-Change  Column Row Layer    Maximum-Flux-Residual          L2-NORM 
          0                 1           2             5    7     1       0.6191008159E-01       5    7    1         0.3283680854E+01      0.8541605658E+01
          0                 2           2             4    7     1      -0.2356008867E-01       5    7    1        -0.1274941212E+01      0.3133623381E+01
          0                 3           2             4    7     1       0.1604042337E-02       5    7    1         0.8922869739E-01      0.2233332233E+00
          0                 4           1             4    7     1      -0.6382635516E-04       5    7    1        -0.3649459360E-02      0.9436073953E-02

    ------------------------------------------------
       NWT REQUIRED            4 OUTER ITERATIONS 
       AND A TOTAL OF          7 INNER ITERATIONS.
    ------------------------------------------------

 NO OUTPUT CONTROL FOR STRESS PERIOD   22   TIME STEP    9
 
 SOLVING FOR HEAD 
                                                   Max.-Head-Change                         Max.-Flux-Residual
  Residual-Control   Outer-Iter.   Inner-Iter.     Column Row Layer    Maximum-Head-Change  Column Row Layer    Maximum-Flux-Residual          L2-NORM 
          0                 1           2             5    7     1       0.6092445630E-01       5    7    1         0.3231369604E+01      0.8366717739E+01
          0                 2           2             4    7     1      -0.2353026365E-01       5    7    1        -0.1269739555E+01      0.3118141356E+01
          0                 3           2             4    7     1       0.1602001477E-02       5    7    1         0.8886403797E-01      0.2222511988E+00
          0                 4           1             4    7     1      -0.6416244256E-04       5    7    1        -0.3658207852E-02      0.9441291892E-02

    ------------------------------------------------
       NWT REQUIRED            4 OUTER ITERATIONS 
       AND A TOTAL OF          7 INNER ITERATIONS.
    ------------------------------------------------

 NO OUTPUT CONTROL FOR STRESS PERIOD   22   TIME STEP   10
 
 SOLVING FOR HEAD 
                                                   Max.-Head-Change                         Max.-Flux-Residual
  Residual-Control   Outer-Iter.   Inner-Iter.     Column Row Layer    Maximum-Head-Change  Column Row Layer    Maximum-Flux-Residual          L2-NORM 
          0                 1           2             4    7     1       0.6023456517E-01       5    7    1         0.3180160531E+01      0.8199831863E+01
          0                 2           2             4    7     1      -0.2349737871E-01       5    7    1        -0.1264618820E+01      0.3103224016E+01
          0                 3           2             4    7     1       0.1599760905E-02       5    7    1         0.8850552063E-01      0.2212166147E+00
          0                 4           1             4    7     1      -0.6407328867E-04       5    7    1        -0.3643544498E-02      0.9404841852E-02

    ------------------------------------------------
       NWT REQUIRED            4 OUTER ITERATIONS 
       AND A TOTAL OF          7 INNER ITERATIONS.
    ------------------------------------------------

 NO OUTPUT CONTROL FOR STRESS PERIOD   22   TIME STEP   11
 
 SOLVING FOR HEAD 
                                                   Max.-Head-Change                         Max.-Flux-Residual
  Residual-Control   Outer-Iter.   Inner-Iter.     Column Row Layer    Maximum-Head-Change  Column Row Layer    Maximum-Flux-Residual          L2-NORM 
          0                 1           2             4    7     1       0.5987314583E-01       4    7    1         0.3134115992E+01      0.8040424048E+01
          0                 2           2             4    7     1      -0.2346222363E-01       4    7    1        -0.1260015495E+01      0.3088906006E+01
          0                 3           2             4    7     1       0.1597366838E-02       4    7    1         0.8818324342E-01      0.2202195571E+00
          0                 4           1             4    7     1      -0.6397802737E-04       4    7    1        -0.3630363548E-02      0.9364482615E-02

    ------------------------------------------------
       NWT REQUIRED            4 OUTER ITERATIONS 
       AND A TOTAL OF          7 INNER ITERATIONS.
    ------------------------------------------------

 NO OUTPUT CONTROL FOR STRESS PERIOD   22   TIME STEP   12
 
 SOLVING FOR HEAD 
                                                   Max.-Head-Change                         Max.-Flux-Residual
  Residual-Control   Outer-Iter.   Inner-Iter.     Column Row Layer    Maximum-Head-Change  Column Row Layer    Maximum-Flux-Residual          L2-NORM 
          0                 1           2             4    7     1       0.5949074211E-01       4    7    1         0.3115340625E+01      0.7888004022E+01
          0                 2           2             4    7     1      -0.2342502601E-01       4    7    1        -0.1258138183E+01      0.3075152219E+01
          0                 3           2             4    7     1       0.1594833693E-02       4    7    1         0.8805182341E-01      0.2192616568E+00
          0                 4           1             4    7     1      -0.6387723154E-04       4    7    1        -0.3624988488E-02      0.9325755493E-02

    ------------------------------------------------
       NWT REQUIRED            4 OUTER ITERATIONS 
       AND A TOTAL OF          7 INNER ITERATIONS.
    ------------------------------------------------

 NO OUTPUT CONTROL FOR STRESS PERIOD   22   TIME STEP   13
 
 SOLVING FOR HEAD 
                                                   Max.-Head-Change                         Max.-Flux-Residual
  Residual-Control   Outer-Iter.   Inner-Iter.     Column Row Layer    Maximum-Head-Change  Column Row Layer    Maximum-Flux-Residual          L2-NORM 
          0                 1           2             4    7     1       0.5908941781E-01       4    7    1         0.3095470017E+01      0.7742128531E+01
          0                 2           2             4    7     1      -0.2338598668E-01       4    7    1        -0.1256151323E+01      0.3061930932E+01
          0                 3           2             4    7     1       0.1592175147E-02       4    7    1         0.8791273582E-01      0.2183403237E+00
          0                 4           1             4    7     1      -0.6377144609E-04       4    7    1        -0.3619299844E-02      0.9288249272E-02

    ------------------------------------------------
       NWT REQUIRED            4 OUTER ITERATIONS 
       AND A TOTAL OF          7 INNER ITERATIONS.
    ------------------------------------------------

 NO OUTPUT CONTROL FOR STRESS PERIOD   22   TIME STEP   14
 
 SOLVING FOR HEAD 
                                                   Max.-Head-Change                         Max.-Flux-Residual
  Residual-Control   Outer-Iter.   Inner-Iter.     Column Row Layer    Maximum-Head-Change  Column Row Layer    Maximum-Flux-Residual          L2-NORM 
          0                 1           2             4    7     1       0.5867123683E-01       4    7    1         0.3074618445E+01      0.7602381771E+01
          0                 2           2             4    7     1      -0.2334530653E-01       4    7    1        -0.1254066346E+01      0.3049213024E+01
          0                 3           2             4    7     1       0.1589404876E-02       4    7    1         0.8776678067E-01      0.2174536367E+00
          0                 4           1             4    7     1      -0.6366121463E-04       4    7    1        -0.3613330294E-02      0.9252130149E-02

    ------------------------------------------------
       NWT REQUIRED            4 OUTER ITERATIONS 
       AND A TOTAL OF          7 INNER ITERATIONS.
    ------------------------------------------------

 NO OUTPUT CONTROL FOR STRESS PERIOD   22   TIME STEP   15
 
 SOLVING FOR HEAD 
                                                   Max.-Head-Change                         Max.-Flux-Residual
  Residual-Control   Outer-Iter.   Inner-Iter.     Column Row Layer    Maximum-Head-Change  Column Row Layer    Maximum-Flux-Residual          L2-NORM 
          0                 1           2             4    7     1       0.5823799064E-01       4    7    1         0.3052885638E+01      0.7468394459E+01
          0                 2           2             4    7     1      -0.2330315990E-01       4    7    1        -0.1251893226E+01      0.3036971655E+01
          0                 3           2             4    7     1       0.1586534754E-02       4    7    1         0.8761465611E-01      0.2165999763E+00
          0                 4           1             4    7     1      -0.6354701036E-04       4    7    1        -0.3607108422E-02      0.9217348738E-02

    ------------------------------------------------
       NWT REQUIRED            4 OUTER ITERATIONS 
       AND A TOTAL OF          7 INNER ITERATIONS.
    ------------------------------------------------

 NO OUTPUT CONTROL FOR STRESS PERIOD   22   TIME STEP   16
 
 SOLVING FOR HEAD 
                                                   Max.-Head-Change                         Max.-Flux-Residual
  Residual-Control   Outer-Iter.   Inner-Iter.     Column Row Layer    Maximum-Head-Change  Column Row Layer    Maximum-Flux-Residual          L2-NORM 
          0                 1           2             4    7     1       0.5779174787E-01       4    7    1         0.3030386309E+01      0.7339813411E+01
          0                 2           2             4    7     1      -0.2325974811E-01       4    7    1        -0.1249643435E+01      0.3025180459E+01
          0                 3           2             4    7     1       0.1583578488E-02       4    7    1         0.8745716527E-01      0.2157773592E+00
          0                 4           1             4    7     1      -0.6342937781E-04       4    7    1        -0.3600667045E-02      0.9183964468E-02

    ------------------------------------------------
       NWT REQUIRED            4 OUTER ITERATIONS 
       AND A TOTAL OF          7 INNER ITERATIONS.
    ------------------------------------------------

 NO OUTPUT CONTROL FOR STRESS PERIOD   22   TIME STEP   17
 
 SOLVING FOR HEAD 
                                                   Max.-Head-Change                         Max.-Flux-Residual
  Residual-Control   Outer-Iter.   Inner-Iter.     Column Row Layer    Maximum-Head-Change  Column Row Layer    Maximum-Flux-Residual          L2-NORM 
          0                 1           2             4    7     1       0.5733377164E-01       4    7    1         0.3007191321E+01      0.7216314105E+01
          0                 2           2             4    7     1      -0.2321519410E-01       4    7    1        -0.1247324062E+01      0.3013817961E+01
          0                 3           2             4    7     1       0.1580544450E-02       4    7    1         0.8729480415E-01      0.2149843008E+00
          0                 4           1             4    7     1      -0.6330865109E-04       4    7    1        -0.3594026508E-02      0.9151577626E-02

    ------------------------------------------------
       NWT REQUIRED            4 OUTER ITERATIONS 
       AND A TOTAL OF          7 INNER ITERATIONS.
    ------------------------------------------------

 NO OUTPUT CONTROL FOR STRESS PERIOD   22   TIME STEP   18
 
 SOLVING FOR HEAD 
                                                   Max.-Head-Change                         Max.-Flux-Residual
  Residual-Control   Outer-Iter.   Inner-Iter.     Column Row Layer    Maximum-Head-Change  Column Row Layer    Maximum-Flux-Residual          L2-NORM 
          0                 1           2             4    7     1       0.5686589703E-01       4    7    1         0.2983402551E+01      0.7097597885E+01
          0                 2           2             4    7     1      -0.2316967647E-01       4    7    1        -0.1244945296E+01      0.3002860094E+01
          0                 3           2             4    7     1       0.1577444800E-02       4    7    1         0.8712828603E-01      0.2142188887E+00
          0                 4           1             4    7     1      -0.6318531294E-04       4    7    1        -0.3587215928E-02      0.9120388308E-02

    ------------------------------------------------
       NWT REQUIRED            4 OUTER ITERATIONS 
       AND A TOTAL OF          7 INNER ITERATIONS.
    ------------------------------------------------

 NO OUTPUT CONTROL FOR STRESS PERIOD   22   TIME STEP   19
 
 SOLVING FOR HEAD 
                                                   Max.-Head-Change                         Max.-Flux-Residual
  Residual-Control   Outer-Iter.   Inner-Iter.     Column Row Layer    Maximum-Head-Change  Column Row Layer    Maximum-Flux-Residual          L2-NORM 
          0                 1           2             4    7     1       0.5638943955E-01       4    7    1         0.2959093309E+01      0.6983400089E+01
          0                 2           2             4    7     1      -0.2312332324E-01       4    7    1        -0.1242514468E+01      0.2992288216E+01
          0                 3           2             4    7     1       0.1574288257E-02       4    7    1         0.8695812411E-01      0.2134801439E+00
          0                 4           1             4    7     1      -0.6305971137E-04       4    7    1        -0.3580256318E-02      0.9090304380E-02

    ------------------------------------------------
       NWT REQUIRED            4 OUTER ITERATIONS 
       AND A TOTAL OF          7 INNER ITERATIONS.
    ------------------------------------------------

 NO OUTPUT CONTROL FOR STRESS PERIOD   22   TIME STEP   20
 
 SOLVING FOR HEAD 
                                                   Max.-Head-Change                         Max.-Flux-Residual
  Residual-Control   Outer-Iter.   Inner-Iter.     Column Row Layer    Maximum-Head-Change  Column Row Layer    Maximum-Flux-Residual          L2-NORM 
          0                 1           2             4    7     1       0.5590574396E-01       4    7    1         0.2934339076E+01      0.6873454101E+01
          0                 2           2             4    7     1      -0.2307626528E-01       4    7    1        -0.1240039128E+01      0.2982081552E+01
          0                 3           2             4    7     1       0.1571083731E-02       4    7    1         0.8678484680E-01      0.2127666043E+00
          0                 4           1             4    7     1      -0.6293220042E-04       4    7    1        -0.3573169287E-02      0.9061170364E-02

    ------------------------------------------------
       NWT REQUIRED            4 OUTER ITERATIONS 
       AND A TOTAL OF          7 INNER ITERATIONS.
    ------------------------------------------------

 NO OUTPUT CONTROL FOR STRESS PERIOD   22   TIME STEP   21
 
 SOLVING FOR HEAD 
                                                   Max.-Head-Change                         Max.-Flux-Residual
  Residual-Control   Outer-Iter.   Inner-Iter.     Column Row Layer    Maximum-Head-Change  Column Row Layer    Maximum-Flux-Residual          L2-NORM 
          0                 1           2             4    7     1       0.5541605896E-01       4    7    1         0.2909209574E+01      0.6767528606E+01
          0                 2           2             4    7     1      -0.2302862414E-01       4    7    1        -0.1237526250E+01      0.2972223779E+01
          0                 3           2             4    7     1       0.1567839499E-02       4    7    1         0.8660894219E-01      0.2120770357E+00
          0                 4           1             4    7     1      -0.6280310945E-04       4    7    1        -0.3565974787E-02      0.9032701555E-02

    ------------------------------------------------
       NWT REQUIRED            4 OUTER ITERATIONS 
       AND A TOTAL OF          7 INNER ITERATIONS.
    ------------------------------------------------

 NO OUTPUT CONTROL FOR STRESS PERIOD   22   TIME STEP   22
 
 SOLVING FOR HEAD 
                                                   Max.-Head-Change                         Max.-Flux-Residual
  Residual-Control   Outer-Iter.   Inner-Iter.     Column Row Layer    Maximum-Head-Change  Column Row Layer    Maximum-Flux-Residual          L2-NORM 
          0                 1           2             4    7     1       0.5492140950E-01       4    7    1         0.2883762262E+01      0.6665402277E+01
          0                 2           2             4    7     1      -0.2298049955E-01       4    7    1        -0.1234981581E+01      0.2962697373E+01
          0                 3           2             4    7     1       0.1564562352E-02       4    7    1         0.8643081256E-01      0.2114102957E+00
          0                 4           1             4    7     1      -0.6267270856E-04       4    7    1        -0.3558689283E-02      0.9005587147E-02

    ------------------------------------------------
       NWT REQUIRED            4 OUTER ITERATIONS 
       AND A TOTAL OF          7 INNER ITERATIONS.
    ------------------------------------------------

 NO OUTPUT CONTROL FOR STRESS PERIOD   22   TIME STEP   23
 
 SOLVING FOR HEAD 
                                                   Max.-Head-Change                         Max.-Flux-Residual
  Residual-Control   Outer-Iter.   Inner-Iter.     Column Row Layer    Maximum-Head-Change  Column Row Layer    Maximum-Flux-Residual          L2-NORM 
          0                 1           2             4    7     1       0.5442300410E-01       4    7    1         0.2858064843E+01      0.6566871917E+01
          0                 2           2             4    7     1      -0.2293200915E-01       4    7    1        -0.1232411890E+01      0.2953486911E+01
          0                 3           2             4    7     1       0.1561260299E-02       4    7    1         0.8625093185E-01      0.2107653255E+00
          0                 4           1             4    7     1      -0.6254131643E-04       4    7    1        -0.3551332147E-02      0.8979272404E-02

    ------------------------------------------------
       NWT REQUIRED            4 OUTER ITERATIONS 
       AND A TOTAL OF          7 INNER ITERATIONS.
    ------------------------------------------------

 NO OUTPUT CONTROL FOR STRESS PERIOD   22   TIME STEP   24
 
 SOLVING FOR HEAD 
                                                   Max.-Head-Change                         Max.-Flux-Residual
  Residual-Control   Outer-Iter.   Inner-Iter.     Column Row Layer    Maximum-Head-Change  Column Row Layer    Maximum-Flux-Residual          L2-NORM 
          0                 1           2             4    7     1       0.5392169377E-01       4    7    1         0.2832165412E+01      0.6471743565E+01
          0                 2           2             4    7     1      -0.2288323574E-01       4    7    1        -0.1229821990E+01      0.2944577123E+01
          0                 3           2             4    7     1       0.1557938981E-02       4    7    1         0.8606963677E-01      0.2101409219E+00
          0                 4           1             4    7     1      -0.6240915800E-04       4    7    1        -0.3543917188E-02      0.8953618819E-02

    ------------------------------------------------
       NWT REQUIRED            4 OUTER ITERATIONS 
       AND A TOTAL OF          7 INNER ITERATIONS.
    ------------------------------------------------

 NO OUTPUT CONTROL FOR STRESS PERIOD   22   TIME STEP   25
 
 SOLVING FOR HEAD 
                                                   Max.-Head-Change                         Max.-Flux-Residual
  Residual-Control   Outer-Iter.   Inner-Iter.     Column Row Layer    Maximum-Head-Change  Column Row Layer    Maximum-Flux-Residual          L2-NORM 
          0                 1           2             4    7     1       0.5341852881E-01       4    7    1         0.2806122655E+01      0.6379852958E+01
          0                 2           2             4    7     1      -0.2283428157E-01       4    7    1        -0.1227217750E+01      0.2935955493E+01
          0                 3           2             4    7     1       0.1554605356E-02       4    7    1         0.8588733813E-01      0.2095361899E+00
          0                 4           1             4    7     1      -0.6227651005E-04       4    7    1        -0.3536461160E-02      0.8928580743E-02

    ------------------------------------------------
       NWT REQUIRED            4 OUTER ITERATIONS 
       AND A TOTAL OF          7 INNER ITERATIONS.
    ------------------------------------------------

 NO OUTPUT CONTROL FOR STRESS PERIOD   22   TIME STEP   26
 
 SOLVING FOR HEAD 
                                                   Max.-Head-Change                         Max.-Flux-Residual
  Residual-Control   Outer-Iter.   Inner-Iter.     Column Row Layer    Maximum-Head-Change  Column Row Layer    Maximum-Flux-Residual          L2-NORM 
          0                 1           2             4    7     1       0.5291434981E-01       4    7    1         0.2779983745E+01      0.6291034568E+01
          0                 2           2             4    7     1      -0.2278522842E-01       4    7    1        -0.1224603886E+01      0.2927608939E+01
          0                 3           2             4    7     1       0.1551264997E-02       4    7    1         0.8570436621E-01      0.2089506484E+00
          0                 4           1             4    7     1      -0.6214359397E-04       4    7    1        -0.3528977618E-02      0.8904658357E-02

    ------------------------------------------------
       NWT REQUIRED            4 OUTER ITERATIONS 
       AND A TOTAL OF          7 INNER ITERATIONS.
    ------------------------------------------------

 NO OUTPUT CONTROL FOR STRESS PERIOD   22   TIME STEP   27
 
 SOLVING FOR HEAD 
                                                   Max.-Head-Change                         Max.-Flux-Residual
  Residual-Control   Outer-Iter.   Inner-Iter.     Column Row Layer    Maximum-Head-Change  Column Row Layer    Maximum-Flux-Residual          L2-NORM 
          0                 1           2             4    7     1       0.5240978774E-01       4    7    1         0.2753784978E+01      0.6205122981E+01
          0                 2           2             4    7     1      -0.2273613772E-01       4    7    1        -0.1221984031E+01      0.2919524160E+01
          0                 3           2             4    7     1       0.1547922084E-02       4    7    1         0.8552097507E-01      0.2083830116E+00
          0                 4           1             4    7     1      -0.6201057623E-04       4    7    1        -0.3521476932E-02      0.8881228195E-02

    ------------------------------------------------
       NWT REQUIRED            4 OUTER ITERATIONS 
       AND A TOTAL OF          7 INNER ITERATIONS.
    ------------------------------------------------

 NO OUTPUT CONTROL FOR STRESS PERIOD   22   TIME STEP   28
 
 SOLVING FOR HEAD 
                                                   Max.-Head-Change                         Max.-Flux-Residual
  Residual-Control   Outer-Iter.   Inner-Iter.     Column Row Layer    Maximum-Head-Change  Column Row Layer    Maximum-Flux-Residual          L2-NORM 
          0                 1           2             4    7     1       0.5190555710E-01       4    7    1         0.2727566352E+01      0.6121987658E+01
          0                 2           2             4    7     1      -0.2268707900E-01       4    7    1        -0.1219362183E+01      0.2911690644E+01
          0                 3           2             4    7     1       0.1544581353E-02       4    7    1         0.8533744475E-01      0.2078325224E+00
          0                 4           1             4    7     1      -0.6187764530E-04       4    7    1        -0.3513970521E-02      0.8858475880E-02

    ------------------------------------------------
       NWT REQUIRED            4 OUTER ITERATIONS 
       AND A TOTAL OF          7 INNER ITERATIONS.
    ------------------------------------------------

 NO OUTPUT CONTROL FOR STRESS PERIOD   22   TIME STEP   29
 
 SOLVING FOR HEAD 
                                                   Max.-Head-Change                         Max.-Flux-Residual
  Residual-Control   Outer-Iter.   Inner-Iter.     Column Row Layer    Maximum-Head-Change  Column Row Layer    Maximum-Flux-Residual          L2-NORM 
          0                 1           2             4    7     1       0.5140243875E-01       4    7    1         0.2701372197E+01      0.6041653084E+01
          0                 2           2             4    7     1      -0.2263812826E-01       4    7    1        -0.1216742777E+01      0.2903405746E+01
          0                 3           2             4    7     1       0.9376056885E-03       4    7    1         0.5185195723E-01      0.1290343240E+00
          0                 4           1             7   13     1       0.4943575953E-04       7   13    1         0.2832246299E-02      0.5798156826E-02

    ------------------------------------------------
       NWT REQUIRED            4 OUTER ITERATIONS 
       AND A TOTAL OF          7 INNER ITERATIONS.
    ------------------------------------------------

 NO OUTPUT CONTROL FOR STRESS PERIOD   22   TIME STEP   30



 STREAM LISTING     PERIOD     22   STEP       30

 LAYER ROW COL. STREAM  RCH.  FLOW INTO     FLOW TO   FLOW OUT OF   OVRLND.     DIRECT     STREAM       STREAM     STREAM     STREAM   STREAMBED  STREAMBED
                SEG.NO.  NO.  STRM. RCH.    AQUIFER    STRM. RCH.    RUNOFF     PRECIP       ET          HEAD       DEPTH      WIDTH   CONDCTNC.   GRADIENT

   1    1    1     1     1    9.1618E+00  1.4063E-01   9.0211E+00  0.000E+00  0.000E+00  0.000E+00  1.09392E+03  8.721E-01  8.071E+00  3.632E-02  1.291E+00
   1    2    2     1     2    9.0211E+00  2.1609E-01   8.8050E+00  0.000E+00  0.000E+00  0.000E+00  1.08893E+03  8.664E-01  7.984E+00  5.589E-02  1.289E+00
   1    3    3     1     3    8.8050E+00  1.8264E-01   8.6224E+00  0.000E+00  0.000E+00  0.000E+00  1.08328E+03  8.600E-01  7.886E+00  4.732E-02  1.287E+00
   1    3    4     1     4    8.6224E+00  1.6685E-01   8.4556E+00  0.000E+00  0.000E+00  0.000E+00  1.07826E+03  8.543E-01  7.800E+00  4.329E-02  1.285E+00
   1    4    5     2     1    6.4556E+00  2.7527E-01   6.1803E+00  0.000E+00  0.000E+00  0.000E+00  1.07246E+03  5.290E-01  1.200E+01  7.800E-02  1.176E+00
   1    5    6     2     2    6.1803E+00  2.1100E-01   5.9693E+00  0.000E+00  0.000E+00  0.000E+00  1.06703E+03  5.167E-01  1.200E+01  6.000E-02  1.172E+00
   1    6    6     2     3    5.9693E+00  2.1035E-01   5.7589E+00  0.000E+00  0.000E+00  0.000E+00  1.06230E+03  5.059E-01  1.200E+01  6.000E-02  1.169E+00
   1    7    6     2     4    5.7589E+00  2.0970E-01   5.5492E+00  0.000E+00  0.000E+00  0.000E+00  1.05757E+03  4.950E-01  1.200E+01  6.000E-02  1.165E+00
   1    8    6     2     5    5.5492E+00  2.0903E-01   5.3402E+00  0.000E+00  0.000E+00  0.000E+00  1.05284E+03  4.839E-01  1.200E+01  6.000E-02  1.161E+00
   1    3    5     3     1    2.0000E+00  2.8252E-01   1.7175E+00  0.000E+00  0.000E+00  0.000E+00  1.07555E+03  1.909E+00  9.636E+00  7.227E-02  1.955E+00
   1    3    6     3     2    1.7175E+00  2.4905E-01   1.4684E+00  0.000E+00  0.000E+00  0.000E+00  1.07264E+03  1.727E+00  8.909E+00  6.682E-02  1.864E+00
   1    3    7     3     3    1.4684E+00  1.9718E-01   1.2712E+00  0.000E+00  0.000E+00  0.000E+00  1.06987E+03  1.555E+00  8.218E+00  5.547E-02  1.777E+00
   1    4    8     3     4    1.2712E+00  2.2567E-01   1.0456E+00  0.000E+00  0.000E+00  0.000E+00  1.06682E+03  1.364E+00  7.455E+00  6.709E-02  1.682E+00
   1    5    8     3     5    1.0456E+00  1.5790E-01   8.8768E-01  0.000E+00  0.000E+00  0.000E+00  1.06362E+03  1.164E+00  6.655E+00  4.991E-02  1.582E+00
   1    6    8     3     6    8.8768E-01  5.5980E-02   8.3170E-01  0.000E+00  0.000E+00  0.000E+00  1.06158E+03  1.036E+00  6.145E+00  1.844E-02  1.518E+00
   1    5   10     4     1    1.0000E+01  9.0919E-02   9.9091E+00  0.000E+00  0.000E+00  0.000E+00  1.07836E+03  6.368E-01  1.000E+01  2.500E-02  1.212E+00
   1    5    9     4     2    9.9091E+00  1.8158E-01   9.7275E+00  0.000E+00  0.000E+00  0.000E+00  1.07154E+03  6.315E-01  1.000E+01  5.000E-02  1.211E+00
   1    6    8     4     3    9.7275E+00  1.2689E-01   9.6006E+00  0.000E+00  0.000E+00  0.000E+00  1.06381E+03  6.256E-01  1.000E+01  3.500E-02  1.209E+00
   1    6    8     5     1    1.0432E+01  2.2686E-01   1.0205E+01  0.000E+00  0.000E+00  0.000E+00  1.05868E+03  6.790E-01  1.542E+01  6.166E-02  1.226E+00
   1    7    7     5     2    1.0205E+01  2.7894E-01   9.9265E+00  0.000E+00  0.000E+00  0.000E+00  1.05417E+03  6.732E-01  1.519E+01  7.594E-02  1.224E+00
   1    8    7     5     3    9.9265E+00  1.9221E-01   9.7343E+00  0.000E+00  0.000E+00  0.000E+00  1.04992E+03  6.676E-01  1.497E+01  5.241E-02  1.223E+00
   1    8    6     5     4    9.7343E+00  1.3577E-01   9.5985E+00  0.000E+00  0.000E+00  0.000E+00  1.04691E+03  6.637E-01  1.482E+01  3.706E-02  1.221E+00
   1    9    6     6     1    9.5985E+00  2.2097E-01   9.3776E+00  0.000E+00  0.000E+00  0.000E+00  1.04341E+03  6.828E-01  1.200E+01  6.000E-02  1.228E+00
   1   10    7     6     2    9.3776E+00  2.2039E-01   9.1572E+00  0.000E+00  0.000E+00  0.000E+00  1.03885E+03  6.732E-01  1.200E+01  6.000E-02  1.224E+00
   1   11    7     6     3    9.1572E+00  2.1981E-01   8.9374E+00  0.000E+00  0.000E+00  0.000E+00  1.03430E+03  6.636E-01  1.200E+01  6.000E-02  1.221E+00
   1   12    7     6     4    8.9374E+00  2.1923E-01   8.7181E+00  0.000E+00  0.000E+00  0.000E+00  1.02974E+03  6.539E-01  1.200E+01  6.000E-02  1.218E+00
   1   13    7     6     5    8.7181E+00 -4.5856E-02   8.7640E+00  0.000E+00  0.000E+00  0.000E+00  1.02656E+03  6.500E-01  1.200E+01  2.400E-01 -6.369E-02
   1   14    9     7     1    1.5000E+02  1.3732E+00   1.4863E+02  0.000E+00  0.000E+00  0.000E+00  1.03987E+03  2.288E+00  5.529E+01  5.593E-01  8.184E-01
   1   13    8     7     2    1.4863E+02  1.9401E+00   1.4669E+02  0.000E+00  0.000E+00  0.000E+00  1.03478E+03  2.279E+00  5.525E+01  6.147E-01  1.052E+00
   1   13    7     7     3    1.4669E+02  1.6408E+00   1.4505E+02  0.000E+00  0.000E+00  0.000E+00  1.02969E+03  2.269E+00  5.521E+01  5.584E-01  9.795E-01
   1   13    6     8     1    1.5381E+02  9.9324E-01   1.5282E+02  0.000E+00  0.000E+00  0.000E+00  1.02471E+03  2.840E+00  4.118E+01  4.196E-01  7.890E-01
   1   13    5     8     2    1.5282E+02  2.5445E-01   1.5256E+02  0.000E+00  0.000E+00  0.000E+00  1.01846E+03  2.836E+00  4.112E+01  4.190E-01  2.024E-01
   1   13    4     8     3    1.5256E+02 -2.1464E+00   1.5471E+02  0.000E+00  0.000E+00  0.000E+00  1.01222E+03  2.842E+00  4.121E+01  4.200E+00 -1.704E-01
   1   13    3     8     4    1.5471E+02 -3.4960E+00   1.5820E+02  0.000E+00  0.000E+00  0.000E+00  1.00599E+03  2.862E+00  4.149E+01  4.228E+00 -2.756E-01
   1   13    2     8     5    1.5820E+02 -2.5410E+00   1.6075E+02  0.000E+00  0.000E+00  0.000E+00  9.99757E+02  2.882E+00  4.179E+01  4.259E+00 -1.989E-01
   1   13    1     8     6    1.6075E+02 -1.9694E+00   1.6271E+02  0.000E+00  0.000E+00  0.000E+00  9.94773E+02  2.898E+00  4.201E+01  2.569E+00 -2.556E-01
   1    8    6     9     1    5.3402E+00  0.0000E+00   5.3402E+00  0.000E+00  0.000E+00  0.000E+00  1.08031E+03  1.555E+00  4.000E+00  0.000E+00  1.518E+00
   1    8    5     9     2    5.3402E+00  0.0000E+00   5.3402E+00  0.000E+00  0.000E+00  0.000E+00  1.07981E+03  1.555E+00  4.000E+00  0.000E+00  1.518E+00





UNSATURATED ZONE PACKAGE VOLUMETRIC BUDGET FOR  TIME STEP    30 STRESS PERIOD   22
  ------------------------------------------------------------------------------



     CUMULATIVE VOLUMES      L**3       RATES FOR THIS TIME STEP      L**3/T
     ------------------                 ------------------------

           IN:                                      IN:
           ---                                      ---
        INFILTRATION =   857628014.2969          INFILTRATION =          12.0675

          OUT:                                     OUT:
          ----                                     ----
              UZF ET =   853877146.3945                UZF ET =          12.0675
        UZF RECHARGE =       73224.0000          UZF RECHARGE =       0.0000E+00

            IN - OUT =     3677643.9024              IN - OUT =       0.0000E+00

          STORAGE:                                 STORAGE:
          --------                                 --------
      STORAGE CHANGE =     3677642.5024        STORAGE CHANGE =      -1.2449E-15

 PERCENT DISCREPANCY IS DIFFERENCE BETWEEN IN-OUT MINUS CHANGE IN STORAGE
 DIVIDED BY THE AVERAGE OF IN AND OUT TIMES 100

 PERCENT DISCREPANCY =           0.00     PERCENT DISCREPANCY =           0.00






1
  VOLUMETRIC BUDGET FOR AGRICULTURAL FIELDS AT  END OF TIME STEP   30, STRESS PERIOD  22
  ------------------------------------------------------------------------------

     CUMULATIVE VOLUMES      L**3       RATES FOR THIS TIME STEP      L**3/T
     ------------------                 ------------------------

           IN:                                      IN:
           ---                                      ---
           AG WELLS      =   428269280.0000             AG WELLS      =           5.8797
      DIVERSION SEGMENTS =   382511616.0000        DIVERSION SEGMENTS =           5.3402
           GW IRRIGATION =           0.0000             GW IRRIGATION =           0.0000
           SW IRRIGATION =           0.0000             SW IRRIGATION =           0.0000
        SYSTEM LOSSES GW =           0.0000          SYSTEM LOSSES GW =           0.0000
        SYSTEM LOSSES SW =           0.0000          SYSTEM LOSSES SW =           0.0000

                TOTAL IN =   810780928.0000                  TOTAL IN =          11.2199

          OUT:                                     OUT:
          ----                                     ----
           AG WELLS      =           0.0000             AG WELLS      =           0.0000
      DIVERSION SEGMENTS =           0.0000        DIVERSION SEGMENTS =           0.0000
           GW IRRIGATION =   428269280.0000             GW IRRIGATION =           5.8797
           SW IRRIGATION =   382519104.0000             SW IRRIGATION =           5.3403
        SYSTEM LOSSES GW =           0.0000          SYSTEM LOSSES GW =           0.0000
        SYSTEM LOSSES SW =           0.0000          SYSTEM LOSSES SW =           0.0000

               TOTAL OUT =   810788352.0000                 TOTAL OUT =          11.2200

                IN - OUT =       -7424.0000                  IN - OUT =      -1.0586E-04

     PERCENT DISCREPANCY =          -0.00         PERCENT DISCREPANCY =          -0.00



1
  VOLUMETRIC BUDGET FOR ENTIRE MODEL AT END OF TIME STEP   30, STRESS PERIOD  22
  ------------------------------------------------------------------------------

     CUMULATIVE VOLUMES      L**3       RATES FOR THIS TIME STEP      L**3/T
     ------------------                 ------------------------

           IN:                                      IN:
           ---                                      ---
             STORAGE     =   552391040.0000               STORAGE     =          12.7444
       CONSTANT HEAD     =           0.0000         CONSTANT HEAD     =           0.0000
     HEAD DEP BOUNDS     =    15933037.0000       HEAD DEP BOUNDS     =           0.2883
      STREAM LEAKAGE     =   649264832.0000        STREAM LEAKAGE     =          11.3053
        UZF RECHARGE     =       73223.9531          UZF RECHARGE     =           0.0000
               GW ET     =           0.0000                 GW ET     =           0.0000
     SURFACE LEAKAGE     =           0.0000       SURFACE LEAKAGE     =           0.0000
           AG WELLS      =           0.0000             AG WELLS      =           0.0000

                TOTAL IN =  1217662208.0000                  TOTAL IN =          24.3380

          OUT:                                     OUT:
          ----                                     ----
             STORAGE     =   204692544.0000               STORAGE     =           7.9731
       CONSTANT HEAD     =           0.0000         CONSTANT HEAD     =           0.0000
     HEAD DEP BOUNDS     =    15928496.0000       HEAD DEP BOUNDS     =           0.2865
      STREAM LEAKAGE     =   568778176.0000        STREAM LEAKAGE     =          10.1987
        UZF RECHARGE     =           0.0000          UZF RECHARGE     =           0.0000
               GW ET     =           0.0000                 GW ET     =           0.0000
     SURFACE LEAKAGE     =           0.0000       SURFACE LEAKAGE     =           0.0000
           AG WELLS      =   428269280.0000             AG WELLS      =           5.8797

               TOTAL OUT =  1217668480.0000                 TOTAL OUT =          24.3379

                IN - OUT =       -6272.0000                  IN - OUT =       2.6703E-05

     PERCENT DISCREPANCY =          -0.00         PERCENT DISCREPANCY =           0.00






         TIME SUMMARY AT END OF TIME STEP   30 IN STRESS PERIOD   22
                    SECONDS     MINUTES      HOURS       DAYS        YEARS
                    -----------------------------------------------------------
   TIME STEP LENGTH  87667.      1461.1      24.352      1.0147     2.77799E-03
 STRESS PERIOD TIME 2.63000E+06  43833.      730.56      30.440     8.33397E-02
         TOTAL TIME 5.53166E+07 9.21944E+05  15366.      640.24      1.7529    
1
1
                            STRESS PERIOD NO.   23, LENGTH =   2630000.    
                            -----------------------------------------------

                              NUMBER OF TIME STEPS =    30

                               MULTIPLIER FOR DELT =     1.000

                            INITIAL TIME STEP SIZE =   87666.66    

 REUSING NON-PARAMETER GHB CELLS FROM LAST STRESS PERIOD

      2 GHB CELLS

 REUSING STREAM SEGMENT DATA FROM LAST STRESS PERIOD



            AREAL INFILTRATION RATE
 READING ON UNIT   19 WITH FORMAT: (FREE)              

            1           2           3           4           5           6           7           8           9          10
 ........................................................................................................................
   1   1.0000E-10  2.0000E-10   0.000       0.000       0.000       0.000       0.000       0.000       0.000       0.000    
   2   2.0000E-10  1.0000E-10  2.0000E-10   0.000       0.000      8.0000E-10  8.0000E-10  5.0000E-10   0.000       0.000    
   3    0.000      5.0000E-10  1.0000E-10  1.0000E-10  8.0000E-10  8.0000E-10  5.0000E-10  5.0000E-10   0.000       0.000    
   4   8.0000E-10  5.0000E-10  1.0000E-10  1.0000E-10  1.0000E-10  1.0000E-10  1.0000E-10  1.0000E-10  2.0000E-10   0.000    
   5   8.0000E-10  5.0000E-10  1.0000E-10  1.0000E-10  1.0000E-10  1.0000E-10  1.0000E-10  1.0000E-10  1.0000E-10  1.0000E-10
   6   8.0000E-10  5.0000E-10  5.0000E-10  2.0000E-10  2.0000E-10  1.0000E-10  1.0000E-10  1.0000E-10  1.0000E-10  5.0000E-10
   7   8.0000E-10  5.0000E-10  5.0000E-10  2.0000E-10  2.0000E-10  1.0000E-10  1.0000E-10  2.0000E-10  2.0000E-10   0.000    
   8    0.000      5.0000E-10  5.0000E-10  2.0000E-10  2.0000E-10  1.0000E-10  1.0000E-10  2.0000E-10  5.0000E-10   0.000    
   9    0.000      5.0000E-10  5.0000E-10  2.0000E-10  2.0000E-10  1.0000E-10  1.0000E-10  2.0000E-10  5.0000E-10   0.000    
  10    0.000      5.0000E-10  5.0000E-10  2.0000E-10  2.0000E-10  1.0000E-10  1.0000E-10  2.0000E-10  5.0000E-10  8.0000E-10
  11    0.000      1.0000E-10  1.0000E-10  1.0000E-10  1.0000E-10  1.0000E-10  1.0000E-10  2.0000E-10  5.0000E-10   0.000    
  12   1.0000E-10  1.0000E-10  1.0000E-10  1.0000E-10  1.0000E-10  1.0000E-10  1.0000E-10  1.0000E-10  2.0000E-10   0.000    
  13   1.0000E-10  1.0000E-10  2.0000E-10  2.0000E-10  2.0000E-10  2.0000E-10  2.0000E-10  1.0000E-10  1.0000E-10   0.000    
  14    0.000      2.0000E-10  5.0000E-10  5.0000E-10  5.0000E-10  5.0000E-10  5.0000E-10  2.0000E-10  1.0000E-10   0.000    
  15    0.000       0.000      8.0000E-10  8.0000E-10  8.0000E-10  8.0000E-10   0.000       0.000       0.000       0.000    

                  ET RATE =  5.000000E-09

 USING ET EXTINCTION DEPTH FROM PREVIOUS STRESS PERIOD. CURRENT PERIOD IS:      23

 USING EXTINCTION WATER CONTENT FROM PREVIOUS STRESS PERIOD. CURRENT PERIOD IS:      23

 USING AIR ENTRY PRESSURE FROM PREVIOUS STRESS PERIOD. CURRENT PERIOD IS:      23

 USING ROOT PRESSURE HEAD FROM PREVIOUS STRESS PERIOD. CURRENT PERIOD IS:      23

 USING ROOT ACTIVITY FROM PREVIOUS STRESS PERIOD. CURRENT PERIOD IS:      23

 PROCESSING AG STRESS PERIOD DATA

 READING AG STRESS PERIOD DATA

 READING IRRIGATION SEGMENT

 READING IRRIGATION WELL

 READING SUPPLEMENTAL WELL

 END PROCESSING AG STRESS PERIOD DATA OPTIONS
 
 SOLVING FOR HEAD 
                                                   Max.-Head-Change                         Max.-Flux-Residual
  Residual-Control   Outer-Iter.   Inner-Iter.     Column Row Layer    Maximum-Head-Change  Column Row Layer    Maximum-Flux-Residual          L2-NORM 
          0                 1           2             4    7     1       0.5090425229E-01       4    7    1         0.2675389355E+01      0.5966104009E+01
          0                 2           2             4    7     1      -0.4951626047E-02       4    7    1        -0.2675410191E+00      0.5965982377E+00
          0                 3           2             4    7     1       0.3371870798E-03       4    7    1         0.1872785971E-01      0.4176081498E-01
          0                 4           1             4    7     1      -0.1341699058E-04       4    7    1        -0.7659706250E-03      0.1707941984E-02

    ------------------------------------------------
       NWT REQUIRED            4 OUTER ITERATIONS 
       AND A TOTAL OF          7 INNER ITERATIONS.
    ------------------------------------------------

 NO OUTPUT CONTROL FOR STRESS PERIOD   23   TIME STEP    1
 
 SOLVING FOR HEAD 
                                                   Max.-Head-Change                         Max.-Flux-Residual
  Residual-Control   Outer-Iter.   Inner-Iter.     Column Row Layer    Maximum-Head-Change  Column Row Layer    Maximum-Flux-Residual          L2-NORM 
          0                 1           2             4    7     1       0.5031114135E-01       4    7    1         0.2644878962E+01      0.5847029325E+01
          0                 2           2             4    7     1      -0.4893933299E-02       4    7    1        -0.2644900308E+00      0.5846925864E+00
          0                 3           2             4    7     1       0.3332584098E-03       4    7    1         0.1851428995E-01      0.4092755364E-01
          0                 4           1             4    7     1      -0.1326066514E-04       4    7    1        -0.7572355960E-03      0.1673864892E-02

    ------------------------------------------------
       NWT REQUIRED            4 OUTER ITERATIONS 
       AND A TOTAL OF          7 INNER ITERATIONS.
    ------------------------------------------------

 NO OUTPUT CONTROL FOR STRESS PERIOD   23   TIME STEP    2
 
 SOLVING FOR HEAD 
                                                   Max.-Head-Change                         Max.-Flux-Residual
  Residual-Control   Outer-Iter.   Inner-Iter.     Column Row Layer    Maximum-Head-Change  Column Row Layer    Maximum-Flux-Residual          L2-NORM 
          0                 1           2             4    7     1       0.4971316008E-01       4    7    1         0.2614054263E+01      0.5732331644E+01
          0                 2           2             4    7     1      -0.4835766648E-02       4    7    1        -0.2614076016E+00      0.5732244045E+00
          0                 3           2             4    7     1       0.3292974707E-03       4    7    1         0.1829851943E-01      0.4012491772E-01
          0                 4           1             4    7     1      -0.1310305592E-04       4    7    1        -0.7484105859E-03      0.1641058191E-02

    ------------------------------------------------
       NWT REQUIRED            4 OUTER ITERATIONS 
       AND A TOTAL OF          7 INNER ITERATIONS.
    ------------------------------------------------

 NO OUTPUT CONTROL FOR STRESS PERIOD   23   TIME STEP    3
 
 SOLVING FOR HEAD 
                                                   Max.-Head-Change                         Max.-Flux-Residual
  Residual-Control   Outer-Iter.   Inner-Iter.     Column Row Layer    Maximum-Head-Change  Column Row Layer    Maximum-Flux-Residual          L2-NORM 
          0                 1           2             4    7     1       0.4911155238E-01       4    7    1         0.2582984315E+01      0.5621763099E+01
          0                 2           2             4    7     1      -0.4777247091E-02       4    7    1        -0.2583006382E+00      0.5621642566E+00
          0                 3           2             4    7     1       0.3253125012E-03       4    7    1         0.1808103161E-01      0.3935079738E-01
          0                 4           1             4    7     1      -0.1294449010E-04       4    7    1        -0.7395153280E-03      0.1609426773E-02

    ------------------------------------------------
       NWT REQUIRED            4 OUTER ITERATIONS 
       AND A TOTAL OF          7 INNER ITERATIONS.
    ------------------------------------------------

 NO OUTPUT CONTROL FOR STRESS PERIOD   23   TIME STEP    4
 
 SOLVING FOR HEAD 
                                                   Max.-Head-Change                         Max.-Flux-Residual
  Residual-Control   Outer-Iter.   Inner-Iter.     Column Row Layer    Maximum-Head-Change  Column Row Layer    Maximum-Flux-Residual          L2-NORM 
          0                 1           2             4    7     1       0.4850747535E-01       4    7    1         0.2551733614E+01      0.5515098105E+01
          0                 2           2             4    7     1      -0.4718487240E-02       4    7    1        -0.2551755913E+00      0.5515027839E+00
          0                 3           2             4    7     1       0.3213111695E-03       4    7    1         0.1786227800E-01      0.3860463943E-01
          0                 4           1             4    7     1      -0.1278527346E-04       4    7    1        -0.7305682918E-03      0.1578913622E-02

    ------------------------------------------------
       NWT REQUIRED            4 OUTER ITERATIONS 
       AND A TOTAL OF          7 INNER ITERATIONS.
    ------------------------------------------------

 NO OUTPUT CONTROL FOR STRESS PERIOD   23   TIME STEP    5
 
 SOLVING FOR HEAD 
                                                   Max.-Head-Change                         Max.-Flux-Residual
  Residual-Control   Outer-Iter.   Inner-Iter.     Column Row Layer    Maximum-Head-Change  Column Row Layer    Maximum-Flux-Residual          L2-NORM 
          0                 1           2             4    7     1       0.4790160239E-01       4    7    1         0.2520340287E+01      0.5412104604E+01
          0                 2           2             4    7     1      -0.4659552568E-02       4    7    1        -0.2520362740E+00      0.5412053246E+00
          0                 3           2             4    7     1       0.3172979349E-03       4    7    1         0.1764252558E-01      0.3788388736E-01
          0                 4           1             4    7     1      -0.1262558331E-04       4    7    1        -0.7215804087E-03      0.1549440672E-02

    ------------------------------------------------
       NWT REQUIRED            4 OUTER ITERATIONS 
       AND A TOTAL OF          7 INNER ITERATIONS.
    ------------------------------------------------

 NO OUTPUT CONTROL FOR STRESS PERIOD   23   TIME STEP    6
 
 SOLVING FOR HEAD 
                                                   Max.-Head-Change                         Max.-Flux-Residual
  Residual-Control   Outer-Iter.   Inner-Iter.     Column Row Layer    Maximum-Head-Change  Column Row Layer    Maximum-Flux-Residual          L2-NORM 
          0                 1           2             4    7     1       0.4729508634E-01       4    7    1         0.2488868408E+01      0.5312592958E+01
          0                 2           2             4    7     1      -0.4600555238E-02       4    7    1        -0.2488890948E+00      0.5312550291E+00
          0                 3           2             4    7     1       0.3132804338E-03       4    7    1         0.1742222284E-01      0.3718741312E-01
          0                 4           1             4    7     1      -0.1246572311E-04       4    7    1        -0.7125700183E-03      0.1520943862E-02

    ------------------------------------------------
       NWT REQUIRED            4 OUTER ITERATIONS 
       AND A TOTAL OF          7 INNER ITERATIONS.
    ------------------------------------------------

 NO OUTPUT CONTROL FOR STRESS PERIOD   23   TIME STEP    7
 
 SOLVING FOR HEAD 
                                                   Max.-Head-Change                         Max.-Flux-Residual
  Residual-Control   Outer-Iter.   Inner-Iter.     Column Row Layer    Maximum-Head-Change  Column Row Layer    Maximum-Flux-Residual          L2-NORM 
          0                 1           2             4    7     1       0.4668846898E-01       4    7    1         0.2457348588E+01      0.5216367654E+01
          0                 2           2             4    7     1      -0.4541547958E-02       4    7    1        -0.2457371154E+00      0.5216332794E+00
          0                 3           2             4    7     1       0.3092622559E-03       4    7    1         0.1720158415E-01      0.3651396284E-01
          0                 4           1             4    7     1      -0.1230583585E-04       4    7    1        -0.7035458580E-03      0.1493400303E-02

    ------------------------------------------------
       NWT REQUIRED            4 OUTER ITERATIONS 
       AND A TOTAL OF          7 INNER ITERATIONS.
    ------------------------------------------------

 NO OUTPUT CONTROL FOR STRESS PERIOD   23   TIME STEP    8
 
 SOLVING FOR HEAD 
                                                   Max.-Head-Change                         Max.-Flux-Residual
  Residual-Control   Outer-Iter.   Inner-Iter.     Column Row Layer    Maximum-Head-Change  Column Row Layer    Maximum-Flux-Residual          L2-NORM 
          0                 1           2             4    7     1       0.4608276957E-01       4    7    1         0.2425838083E+01      0.5123256413E+01
          0                 2           2             4    7     1      -0.4482629892E-02       4    7    1        -0.2425860619E+00      0.5123228373E+00
          0                 3           2             4    7     1       0.3052501549E-03       4    7    1         0.1698101036E-01      0.3586231538E-01
          0                 4           1             4    7     1      -0.1214619071E-04       4    7    1        -0.6945243936E-03      0.1466790511E-02

    ------------------------------------------------
       NWT REQUIRED            4 OUTER ITERATIONS 
       AND A TOTAL OF          7 INNER ITERATIONS.
    ------------------------------------------------

 NO OUTPUT CONTROL FOR STRESS PERIOD   23   TIME STEP    9
 
 SOLVING FOR HEAD 
                                                   Max.-Head-Change                         Max.-Flux-Residual
  Residual-Control   Outer-Iter.   Inner-Iter.     Column Row Layer    Maximum-Head-Change  Column Row Layer    Maximum-Flux-Residual          L2-NORM 
          0                 1           2             4    7     1       0.4547840312E-01       4    7    1         0.2394360573E+01      0.5033089378E+01
          0                 2           2             4    7     1      -0.4423841409E-02       4    7    1        -0.2394383030E+00      0.5033068667E+00
          0                 3           2             4    7     1       0.3012468780E-03       4    7    1         0.1676066720E-01      0.3523121605E-01
          0                 4           1             4    7     1      -0.1198689683E-04       4    7    1        -0.6855123468E-03      0.1440948861E-02

    ------------------------------------------------
       NWT REQUIRED            4 OUTER ITERATIONS 
       AND A TOTAL OF          7 INNER ITERATIONS.
    ------------------------------------------------

 NO OUTPUT CONTROL FOR STRESS PERIOD   23   TIME STEP   10
 
 SOLVING FOR HEAD 
                                                   Max.-Head-Change                         Max.-Flux-Residual
  Residual-Control   Outer-Iter.   Inner-Iter.     Column Row Layer    Maximum-Head-Change  Column Row Layer    Maximum-Flux-Residual          L2-NORM 
          0                 1           2             4    7     1       0.4487627465E-01       4    7    1         0.2362966746E+01      0.4945739307E+01
          0                 2           2             4    7     1      -0.4365270557E-02       4    7    1        -0.2362989080E+00      0.4945721949E+00
          0                 3           2             4    7     1       0.2972584218E-03       4    7    1         0.1654090957E-01      0.3461983404E-01
          0                 4           1             4    7     1      -0.1182819251E-04       4    7    1        -0.6765242508E-03      0.1415951013E-02

    ------------------------------------------------
       NWT REQUIRED            4 OUTER ITERATIONS 
       AND A TOTAL OF          7 INNER ITERATIONS.
    ------------------------------------------------

 NO OUTPUT CONTROL FOR STRESS PERIOD   23   TIME STEP   11
 
 SOLVING FOR HEAD 
                                                   Max.-Head-Change                         Max.-Flux-Residual
  Residual-Control   Outer-Iter.   Inner-Iter.     Column Row Layer    Maximum-Head-Change  Column Row Layer    Maximum-Flux-Residual          L2-NORM 
          0                 1           2             4    7     1       0.4427668926E-01       4    7    1         0.2331674354E+01      0.4861043038E+01
          0                 2           2             4    7     1      -0.4306947018E-02       4    7    1        -0.2331696525E+00      0.4861029858E+00
          0                 3           2             4    7     1       0.2932868071E-03       4    7    1         0.1632186175E-01      0.3402700417E-01
          0                 4           1             4    7     1      -0.1167015789E-04       4    7    1        -0.6675651737E-03      0.1391692123E-02

    ------------------------------------------------
       NWT REQUIRED            4 OUTER ITERATIONS 
       AND A TOTAL OF          7 INNER ITERATIONS.
    ------------------------------------------------

 NO OUTPUT CONTROL FOR STRESS PERIOD   23   TIME STEP   12
 
 SOLVING FOR HEAD 
                                                   Max.-Head-Change                         Max.-Flux-Residual
  Residual-Control   Outer-Iter.   Inner-Iter.     Column Row Layer    Maximum-Head-Change  Column Row Layer    Maximum-Flux-Residual          L2-NORM 
          0                 1           2             4    7     1       0.4368031769E-01       4    7    1         0.2300521096E+01      0.4778893780E+01
          0                 2           2             4    7     1      -0.4248936044E-02       4    7    1        -0.2300543070E+00      0.4778884354E+00
          0                 3           2             4    7     1       0.2893364777E-03       4    7    1         0.1610378766E-01      0.3345203646E-01
          0                 4           1             4    7     1      -0.1151297037E-04       4    7    1        -0.6586459310E-03      0.1368190860E-02

    ------------------------------------------------
       NWT REQUIRED            4 OUTER ITERATIONS 
       AND A TOTAL OF          7 INNER ITERATIONS.
    ------------------------------------------------

 NO OUTPUT CONTROL FOR STRESS PERIOD   23   TIME STEP   13
 
 SOLVING FOR HEAD 
                                                   Max.-Head-Change                         Max.-Flux-Residual
  Residual-Control   Outer-Iter.   Inner-Iter.     Column Row Layer    Maximum-Head-Change  Column Row Layer    Maximum-Flux-Residual          L2-NORM 
          0                 1           2             4    7     1       0.4308777636E-01       4    7    1         0.2269541753E+01      0.4699164740E+01
          0                 2           2             4    7     1      -0.4191297603E-02       4    7    1        -0.2269563500E+00      0.4699158422E+00
          0                 3           2             4    7     1       0.2854115168E-03       4    7    1         0.1588693079E-01      0.3289396635E-01
          0                 4           1             4    7     1      -0.1135679242E-04       4    7    1        -0.6497764689E-03      0.1345350269E-02

    ------------------------------------------------
       NWT REQUIRED            4 OUTER ITERATIONS 
       AND A TOTAL OF          7 INNER ITERATIONS.
    ------------------------------------------------

 NO OUTPUT CONTROL FOR STRESS PERIOD   23   TIME STEP   14
 
 SOLVING FOR HEAD 
                                                   Max.-Head-Change                         Max.-Flux-Residual
  Residual-Control   Outer-Iter.   Inner-Iter.     Column Row Layer    Maximum-Head-Change  Column Row Layer    Maximum-Flux-Residual          L2-NORM 
          0                 1           2             4    7     1       0.4249936042E-01       4    7    1         0.2238753693E+01      0.4621735830E+01
          0                 2           2             4    7     1      -0.4134060410E-02       4    7    1        -0.2238775186E+00      0.4621732215E+00
          0                 3           2             4    7     1       0.2815138791E-03       4    7    1         0.1567141272E-01      0.3235200030E-01
          0                 4           1             4    7     1      -0.1120170184E-04       4    7    1        -0.6409617552E-03      0.1323209451E-02

    ------------------------------------------------
       NWT REQUIRED            4 OUTER ITERATIONS 
       AND A TOTAL OF          7 INNER ITERATIONS.
    ------------------------------------------------

 NO OUTPUT CONTROL FOR STRESS PERIOD   23   TIME STEP   15
 
 SOLVING FOR HEAD 
                                                   Max.-Head-Change                         Max.-Flux-Residual
  Residual-Control   Outer-Iter.   Inner-Iter.     Column Row Layer    Maximum-Head-Change  Column Row Layer    Maximum-Flux-Residual          L2-NORM 
          0                 1           2             4    7     1       0.4191546560E-01       4    7    1         0.2208179516E+01      0.4546502015E+01
          0                 2           2             4    7     1      -0.4077262965E-02       4    7    1        -0.2208200731E+00      0.4546500751E+00
          0                 3           2             4    7     1       0.2776461881E-03       4    7    1         0.1545739172E-01      0.3182541691E-01
          0                 4           1             4    7     1      -0.1104780283E-04       4    7    1        -0.6322082891E-03      0.1301655047E-02

    ------------------------------------------------
       NWT REQUIRED            4 OUTER ITERATIONS 
       AND A TOTAL OF          7 INNER ITERATIONS.
    ------------------------------------------------

 NO OUTPUT CONTROL FOR STRESS PERIOD   23   TIME STEP   16
 
 SOLVING FOR HEAD 
                                                   Max.-Head-Change                         Max.-Flux-Residual
  Residual-Control   Outer-Iter.   Inner-Iter.     Column Row Layer    Maximum-Head-Change  Column Row Layer    Maximum-Flux-Residual          L2-NORM 
          0                 1           2             4    7     1       0.4133645436E-01       4    7    1         0.2177839740E+01      0.4473381812E+01
          0                 2           2             4    7     1      -0.4020940528E-02       4    7    1        -0.2177860658E+00      0.4473382471E+00
          0                 3           2             4    7     1       0.2738108435E-03       4    7    1         0.1524501141E-01      0.3131360169E-01
          0                 4           1             4    7     1      -0.1089519107E-04       4    7    1        -0.6235219344E-03      0.1280725258E-02

    ------------------------------------------------
       NWT REQUIRED            4 OUTER ITERATIONS 
       AND A TOTAL OF          7 INNER ITERATIONS.
    ------------------------------------------------

 NO OUTPUT CONTROL FOR STRESS PERIOD   23   TIME STEP   17
 
 SOLVING FOR HEAD 
                                                   Max.-Head-Change                         Max.-Flux-Residual
  Residual-Control   Outer-Iter.   Inner-Iter.     Column Row Layer    Maximum-Head-Change  Column Row Layer    Maximum-Flux-Residual          L2-NORM 
          0                 1           2             4    7     1       0.4076277638E-01       4    7    1         0.2147760456E+01      0.4402267344E+01
          0                 2           2             4    7     1      -0.3965136847E-02       4    7    1        -0.2147781060E+00      0.4402269534E+00
          0                 3           2             4    7     1       0.2700108237E-03       4    7    1         0.1503445440E-01      0.3081581935E-01
          0                 4           1             4    7     1      -0.1074398489E-04       4    7    1        -0.6149101384E-03      0.1260363786E-02

    ------------------------------------------------
       NWT REQUIRED            4 OUTER ITERATIONS 
       AND A TOTAL OF          7 INNER ITERATIONS.
    ------------------------------------------------

 NO OUTPUT CONTROL FOR STRESS PERIOD   23   TIME STEP   18
 
 SOLVING FOR HEAD 
                                                   Max.-Head-Change                         Max.-Flux-Residual
  Residual-Control   Outer-Iter.   Inner-Iter.     Column Row Layer    Maximum-Head-Change  Column Row Layer    Maximum-Flux-Residual          L2-NORM 
          0                 1           2             4    7     1       0.4019458183E-01       4    7    1         0.2117950385E+01      0.4333078387E+01
          0                 2           2             4    7     1      -0.3909866532E-02       4    7    1        -0.2117970659E+00      0.4333082094E+00
          0                 3           2             4    7     1       0.2662471252E-03       4    7    1         0.1482578184E-01      0.3033153724E-01
          0                 4           1             4    7     1      -0.1059422369E-04       4    7    1        -0.6063754174E-03      0.1240569553E-02

    ------------------------------------------------
       NWT REQUIRED            4 OUTER ITERATIONS 
       AND A TOTAL OF          7 INNER ITERATIONS.
    ------------------------------------------------

 NO OUTPUT CONTROL FOR STRESS PERIOD   23   TIME STEP   19
 
 SOLVING FOR HEAD 
                                                   Max.-Head-Change                         Max.-Flux-Residual
  Residual-Control   Outer-Iter.   Inner-Iter.     Column Row Layer    Maximum-Head-Change  Column Row Layer    Maximum-Flux-Residual          L2-NORM 
          0                 1           2             4    7     1       0.3963225938E-01       4    7    1         0.2088431908E+01      0.4265738879E+01
          0                 2           2             4    7     1      -0.3855167394E-02       4    7    1        -0.2088451842E+00      0.4265743786E+00
          0                 3           2             4    7     1       0.2625223212E-03       4    7    1         0.1461915033E-01      0.2986017257E-01
          0                 4           1             4    7     1      -0.1044601003E-04       4    7    1        -0.5979241721E-03      0.1221275878E-02

    ------------------------------------------------
       NWT REQUIRED            4 OUTER ITERATIONS 
       AND A TOTAL OF          7 INNER ITERATIONS.
    ------------------------------------------------

 NO OUTPUT CONTROL FOR STRESS PERIOD   23   TIME STEP   20
 
 SOLVING FOR HEAD 
                                                   Max.-Head-Change                         Max.-Flux-Residual
  Residual-Control   Outer-Iter.   Inner-Iter.     Column Row Layer    Maximum-Head-Change  Column Row Layer    Maximum-Flux-Residual          L2-NORM 
          0                 1           2             4    7     1       0.3907589650E-01       4    7    1         0.2059210582E+01      0.4200163090E+01
          0                 2           2             4    7     1      -0.3801047945E-02       4    7    1        -0.2059230165E+00      0.4200168813E+00
          0                 3           2             4    7     1       0.2588369927E-03       4    7    1         0.1441459886E-01      0.2940115110E-01
          0                 4           1             4    7     1      -0.1029936740E-04       4    7    1        -0.5895580036E-03      0.1202510075E-02

    ------------------------------------------------
       NWT REQUIRED            4 OUTER ITERATIONS 
       AND A TOTAL OF          7 INNER ITERATIONS.
    ------------------------------------------------

 NO OUTPUT CONTROL FOR STRESS PERIOD   23   TIME STEP   21
 
 SOLVING FOR HEAD 
                                                   Max.-Head-Change                         Max.-Flux-Residual
  Residual-Control   Outer-Iter.   Inner-Iter.     Column Row Layer    Maximum-Head-Change  Column Row Layer    Maximum-Flux-Residual          L2-NORM 
          0                 1           2             4    7     1       0.3852582433E-01       4    7    1         0.2030305541E+01      0.4136286583E+01
          0                 2           2             4    7     1      -0.3747540398E-02       4    7    1        -0.2030324764E+00      0.4136292949E+00
          0                 3           2             4    7     1       0.2551933320E-03       4    7    1         0.1421226129E-01      0.2895401806E-01
          0                 4           1             4    7     1      -0.1015438306E-04       4    7    1        -0.5812823874E-03      0.1184220809E-02

    ------------------------------------------------
       NWT REQUIRED            4 OUTER ITERATIONS 
       AND A TOTAL OF          7 INNER ITERATIONS.
    ------------------------------------------------

 NO OUTPUT CONTROL FOR STRESS PERIOD   23   TIME STEP   22
 
 SOLVING FOR HEAD 
                                                   Max.-Head-Change                         Max.-Flux-Residual
  Residual-Control   Outer-Iter.   Inner-Iter.     Column Row Layer    Maximum-Head-Change  Column Row Layer    Maximum-Flux-Residual          L2-NORM 
          0                 1           2             4    7     1       0.3798221107E-01       4    7    1         0.2001726654E+01      0.4074040598E+01
          0                 2           2             4    7     1      -0.3694661118E-02       4    7    1        -0.2001745511E+00      0.4074047694E+00
          0                 3           2             4    7     1       0.2515924541E-03       4    7    1         0.1401220678E-01      0.2851831121E-01
          0                 4           1             4    7     1      -0.1001110043E-04       4    7    1        -0.5731001329E-03      0.1166401324E-02

    ------------------------------------------------
       NWT REQUIRED            4 OUTER ITERATIONS 
       AND A TOTAL OF          7 INNER ITERATIONS.
    ------------------------------------------------

 NO OUTPUT CONTROL FOR STRESS PERIOD   23   TIME STEP   23
 
 SOLVING FOR HEAD 
                                                   Max.-Head-Change                         Max.-Flux-Residual
  Residual-Control   Outer-Iter.   Inner-Iter.     Column Row Layer    Maximum-Head-Change  Column Row Layer    Maximum-Flux-Residual          L2-NORM 
          0                 1           2             4    7     1       0.3744506658E-01       4    7    1         0.1973475340E+01      0.4013359997E+01
          0                 2           2             4    7     1      -0.3642411065E-02       4    7    1        -0.1973493828E+00      0.4013367581E+00
          0                 3           2             4    7     1       0.2480344246E-03       4    7    1         0.1381444527E-01      0.2809355301E-01
          0                 4           1             4    7     1      -0.9869523074E-05       4    7    1        -0.5650116682E-03      0.1149023165E-02

    ------------------------------------------------
       NWT REQUIRED            4 OUTER ITERATIONS 
       AND A TOTAL OF          7 INNER ITERATIONS.
    ------------------------------------------------

 NO OUTPUT CONTROL FOR STRESS PERIOD   23   TIME STEP   24
 
 SOLVING FOR HEAD 
                                                   Max.-Head-Change                         Max.-Flux-Residual
  Residual-Control   Outer-Iter.   Inner-Iter.     Column Row Layer    Maximum-Head-Change  Column Row Layer    Maximum-Flux-Residual          L2-NORM 
          0                 1           2             4    7     1       0.3691478723E-01       4    7    1         0.1945574019E+01      0.3954192148E+01
          0                 2           2             4    7     1      -0.3590828799E-02       4    7    1        -0.1945592133E+00      0.3954200142E+00
          0                 3           2             4    7     1       0.2445218691E-03       4    7    1         0.1361913368E-01      0.2767937925E-01
          0                 4           1             4    7     1      -0.9729755289E-05       4    7    1        -0.5570234314E-03      0.1132080571E-02

    ------------------------------------------------
       NWT REQUIRED            4 OUTER ITERATIONS 
       AND A TOTAL OF          7 INNER ITERATIONS.
    ------------------------------------------------

 NO OUTPUT CONTROL FOR STRESS PERIOD   23   TIME STEP   25
 
 SOLVING FOR HEAD 
                                                   Max.-Head-Change                         Max.-Flux-Residual
  Residual-Control   Outer-Iter.   Inner-Iter.     Column Row Layer    Maximum-Head-Change  Column Row Layer    Maximum-Flux-Residual          L2-NORM 
          0                 1           2             4    7     1       0.3639133276E-01       4    7    1         0.1918021334E+01      0.3896472595E+01
          0                 2           2             4    7     1      -0.3539910405E-02       4    7    1        -0.1918039073E+00      0.3896480922E+00
          0                 3           2             4    7     1       0.2410545205E-03       4    7    1         0.1342626254E-01      0.2727535905E-01
          0                 4           1             4    7     1      -0.9591785912E-05       4    7    1        -0.5491349748E-03      0.1115562450E-02

    ------------------------------------------------
       NWT REQUIRED            4 OUTER ITERATIONS 
       AND A TOTAL OF          7 INNER ITERATIONS.
    ------------------------------------------------

 NO OUTPUT CONTROL FOR STRESS PERIOD   23   TIME STEP   26
 
 SOLVING FOR HEAD 
                                                   Max.-Head-Change                         Max.-Flux-Residual
  Residual-Control   Outer-Iter.   Inner-Iter.     Column Row Layer    Maximum-Head-Change  Column Row Layer    Maximum-Flux-Residual          L2-NORM 
          0                 1           2             4    7     1       0.3587478838E-01       4    7    1         0.1890822500E+01      0.3840154134E+01
          0                 2           2             4    7     1      -0.3489664172E-02       4    7    1        -0.1890839863E+00      0.3840162808E+00
          0                 3           2             4    7     1       0.2376329435E-03       4    7    1         0.1323586833E-01      0.2688115930E-01
          0                 4           1             4    7     1      -0.9455637969E-05       4    7    1        -0.5413478434E-03      0.1099444154E-02

    ------------------------------------------------
       NWT REQUIRED            4 OUTER ITERATIONS 
       AND A TOTAL OF          7 INNER ITERATIONS.
    ------------------------------------------------

 NO OUTPUT CONTROL FOR STRESS PERIOD   23   TIME STEP   27
 
 SOLVING FOR HEAD 
                                                   Max.-Head-Change                         Max.-Flux-Residual
  Residual-Control   Outer-Iter.   Inner-Iter.     Column Row Layer    Maximum-Head-Change  Column Row Layer    Maximum-Flux-Residual          L2-NORM 
          0                 1           2             4    7     1       0.3536521693E-01       4    7    1         0.1863981937E+01      0.3785173216E+01
          0                 2           2             4    7     1      -0.3440096215E-02       4    7    1        -0.1863998924E+00      0.3785181858E+00
          0                 3           2             4    7     1       0.2342575546E-03       4    7    1         0.1304798202E-01      0.2649627695E-01
          0                 4           1             4    7     1      -0.9321328383E-05       4    7    1        -0.5336632832E-03      0.1083706261E-02

    ------------------------------------------------
       NWT REQUIRED            4 OUTER ITERATIONS 
       AND A TOTAL OF          7 INNER ITERATIONS.
    ------------------------------------------------

 NO OUTPUT CONTROL FOR STRESS PERIOD   23   TIME STEP   28
 
 SOLVING FOR HEAD 
                                                   Max.-Head-Change                         Max.-Flux-Residual
  Residual-Control   Outer-Iter.   Inner-Iter.     Column Row Layer    Maximum-Head-Change  Column Row Layer    Maximum-Flux-Residual          L2-NORM 
          0                 1           2             4    7     1       0.3486280500E-01       4    7    1         0.1837510206E+01      0.3731502867E+01
          0                 2           2             4    7     1      -0.3391224685E-02       4    7    1        -0.1837526819E+00      0.3731511567E+00
          0                 3           2             4    7     1       0.2309295902E-03       4    7    1         0.1286267757E-01      0.2612057938E-01
          0                 4           1             4    7     1      -0.9188905624E-05       4    7    1        -0.5260843147E-03      0.1068331493E-02

    ------------------------------------------------
       NWT REQUIRED            4 OUTER ITERATIONS 
       AND A TOTAL OF          7 INNER ITERATIONS.
    ------------------------------------------------

 NO OUTPUT CONTROL FOR STRESS PERIOD   23   TIME STEP   29
 
 SOLVING FOR HEAD 
                                                   Max.-Head-Change                         Max.-Flux-Residual
  Residual-Control   Outer-Iter.   Inner-Iter.     Column Row Layer    Maximum-Head-Change  Column Row Layer    Maximum-Flux-Residual          L2-NORM 
          0                 1           2             4    7     1       0.3436744191E-01       4    7    1         0.1811402373E+01      0.3679076789E+01
          0                 2           2             4    7     1      -0.3343038820E-02       4    7    1        -0.1811418614E+00      0.3679085525E+00
          0                 3           2             4    7     1       0.2276483167E-03       4    7    1         0.1267992040E-01      0.2575359693E-01
          0                 4           1             4    7     1      -0.9058340679E-05       4    7    1        -0.5186095366E-03      0.1053324391E-02

    ------------------------------------------------
       NWT REQUIRED            4 OUTER ITERATIONS 
       AND A TOTAL OF          7 INNER ITERATIONS.
    ------------------------------------------------

 NO OUTPUT CONTROL FOR STRESS PERIOD   23   TIME STEP   30



 STREAM LISTING     PERIOD     23   STEP       30

 LAYER ROW COL. STREAM  RCH.  FLOW INTO     FLOW TO   FLOW OUT OF   OVRLND.     DIRECT     STREAM       STREAM     STREAM     STREAM   STREAMBED  STREAMBED
                SEG.NO.  NO.  STRM. RCH.    AQUIFER    STRM. RCH.    RUNOFF     PRECIP       ET          HEAD       DEPTH      WIDTH   CONDCTNC.   GRADIENT

   1    1    1     1     1    8.2501E+00  1.3178E-01   8.1183E+00  0.000E+00  0.000E+00  0.000E+00  1.09389E+03  8.424E-01  7.622E+00  3.430E-02  1.281E+00
   1    2    2     1     2    8.1183E+00  2.0241E-01   7.9159E+00  0.000E+00  0.000E+00  0.000E+00  1.08890E+03  8.367E-01  7.537E+00  5.276E-02  1.279E+00
   1    3    3     1     3    7.9159E+00  1.7099E-01   7.7449E+00  0.000E+00  0.000E+00  0.000E+00  1.08325E+03  8.302E-01  7.440E+00  4.464E-02  1.277E+00
   1    3    4     1     4    7.7449E+00  1.5612E-01   7.5888E+00  0.000E+00  0.000E+00  0.000E+00  1.07823E+03  8.244E-01  7.355E+00  4.082E-02  1.275E+00
   1    4    5     2     1    5.5888E+00  2.7178E-01   5.3170E+00  0.000E+00  0.000E+00  0.000E+00  1.07242E+03  4.843E-01  1.200E+01  7.800E-02  1.161E+00
   1    5    6     2     2    5.3170E+00  2.0828E-01   5.1088E+00  0.000E+00  0.000E+00  0.000E+00  1.06698E+03  4.714E-01  1.200E+01  6.000E-02  1.157E+00
   1    6    6     2     3    5.1088E+00  2.0760E-01   4.9012E+00  0.000E+00  0.000E+00  0.000E+00  1.06225E+03  4.600E-01  1.200E+01  6.000E-02  1.153E+00
   1    7    6     2     4    4.9012E+00  2.0691E-01   4.6943E+00  0.000E+00  0.000E+00  0.000E+00  1.05752E+03  4.485E-01  1.200E+01  6.000E-02  1.150E+00
   1    8    6     2     5    4.6943E+00  2.0621E-01   4.4880E+00  0.000E+00  0.000E+00  0.000E+00  1.05280E+03  4.368E-01  1.200E+01  6.000E-02  1.146E+00
   1    3    5     3     1    2.0000E+00  2.8252E-01   1.7175E+00  0.000E+00  0.000E+00  0.000E+00  1.07555E+03  1.909E+00  9.636E+00  7.227E-02  1.955E+00
   1    3    6     3     2    1.7175E+00  2.4905E-01   1.4684E+00  0.000E+00  0.000E+00  0.000E+00  1.07264E+03  1.727E+00  8.909E+00  6.682E-02  1.864E+00
   1    3    7     3     3    1.4684E+00  1.9718E-01   1.2712E+00  0.000E+00  0.000E+00  0.000E+00  1.06987E+03  1.555E+00  8.218E+00  5.547E-02  1.777E+00
   1    4    8     3     4    1.2712E+00  2.2567E-01   1.0456E+00  0.000E+00  0.000E+00  0.000E+00  1.06682E+03  1.364E+00  7.455E+00  6.709E-02  1.682E+00
   1    5    8     3     5    1.0456E+00  1.5790E-01   8.8768E-01  0.000E+00  0.000E+00  0.000E+00  1.06362E+03  1.164E+00  6.655E+00  4.991E-02  1.582E+00
   1    6    8     3     6    8.8768E-01  5.5980E-02   8.3170E-01  0.000E+00  0.000E+00  0.000E+00  1.06158E+03  1.036E+00  6.145E+00  1.844E-02  1.518E+00
   1    5   10     4     1    1.0000E+01  9.0919E-02   9.9091E+00  0.000E+00  0.000E+00  0.000E+00  1.07836E+03  6.368E-01  1.000E+01  2.500E-02  1.212E+00
   1    5    9     4     2    9.9091E+00  1.8158E-01   9.7275E+00  0.000E+00  0.000E+00  0.000E+00  1.07154E+03  6.315E-01  1.000E+01  5.000E-02  1.211E+00
   1    6    8     4     3    9.7275E+00  1.2689E-01   9.6006E+00  0.000E+00  0.000E+00  0.000E+00  1.06381E+03  6.256E-01  1.000E+01  3.500E-02  1.209E+00
   1    6    8     5     1    1.0432E+01  2.2686E-01   1.0205E+01  0.000E+00  0.000E+00  0.000E+00  1.05868E+03  6.790E-01  1.542E+01  6.166E-02  1.226E+00
   1    7    7     5     2    1.0205E+01  2.7894E-01   9.9265E+00  0.000E+00  0.000E+00  0.000E+00  1.05417E+03  6.732E-01  1.519E+01  7.594E-02  1.224E+00
   1    8    7     5     3    9.9265E+00  1.9221E-01   9.7343E+00  0.000E+00  0.000E+00  0.000E+00  1.04992E+03  6.676E-01  1.497E+01  5.241E-02  1.223E+00
   1    8    6     5     4    9.7343E+00  1.3577E-01   9.5985E+00  0.000E+00  0.000E+00  0.000E+00  1.04691E+03  6.637E-01  1.482E+01  3.706E-02  1.221E+00
   1    9    6     6     1    1.4087E+01  2.3167E-01   1.3855E+01  0.000E+00  0.000E+00  0.000E+00  1.04359E+03  8.612E-01  1.200E+01  6.000E-02  1.287E+00
   1   10    7     6     2    1.3855E+01  2.3116E-01   1.3624E+01  0.000E+00  0.000E+00  0.000E+00  1.03903E+03  8.526E-01  1.200E+01  6.000E-02  1.284E+00
   1   11    7     6     3    1.3624E+01  2.3064E-01   1.3393E+01  0.000E+00  0.000E+00  0.000E+00  1.03448E+03  8.440E-01  1.200E+01  6.000E-02  1.281E+00
   1   12    7     6     4    1.3393E+01  2.3012E-01   1.3163E+01  0.000E+00  0.000E+00  0.000E+00  1.02993E+03  8.353E-01  1.200E+01  6.000E-02  1.278E+00
   1   13    7     6     5    1.3163E+01 -3.6891E-03   1.3167E+01  0.000E+00  0.000E+00  0.000E+00  1.02674E+03  8.310E-01  1.200E+01  2.400E-01 -5.124E-03
   1   14    9     7     1    1.5000E+02  1.3738E+00   1.4863E+02  0.000E+00  0.000E+00  0.000E+00  1.03987E+03  2.288E+00  5.529E+01  5.593E-01  8.188E-01
   1   13    8     7     2    1.4863E+02  1.9419E+00   1.4668E+02  0.000E+00  0.000E+00  0.000E+00  1.03478E+03  2.279E+00  5.525E+01  6.147E-01  1.053E+00
   1   13    7     7     3    1.4668E+02  1.6378E+00   1.4505E+02  0.000E+00  0.000E+00  0.000E+00  1.02969E+03  2.269E+00  5.521E+01  5.584E-01  9.777E-01
   1   13    6     8     1    1.5821E+02  1.0188E+00   1.5719E+02  0.000E+00  0.000E+00  0.000E+00  1.02475E+03  2.870E+00  4.162E+01  4.241E-01  8.007E-01
   1   13    5     8     2    1.5719E+02  2.7344E-01   1.5692E+02  0.000E+00  0.000E+00  0.000E+00  1.01849E+03  2.866E+00  4.155E+01  4.235E-01  2.152E-01
   1   13    4     8     3    1.5692E+02 -2.0897E+00   1.5901E+02  0.000E+00  0.000E+00  0.000E+00  1.01225E+03  2.872E+00  4.164E+01  4.244E+00 -1.641E-01
   1   13    3     8     4    1.5901E+02 -3.4679E+00   1.6248E+02  0.000E+00  0.000E+00  0.000E+00  1.00602E+03  2.891E+00  4.192E+01  4.272E+00 -2.706E-01
   1   13    2     8     5    1.6248E+02 -2.5223E+00   1.6500E+02  0.000E+00  0.000E+00  0.000E+00  9.99786E+02  2.911E+00  4.221E+01  4.301E+00 -1.955E-01
   1   13    1     8     6    1.6500E+02 -1.9537E+00   1.6695E+02  0.000E+00  0.000E+00  0.000E+00  9.94801E+02  2.926E+00  4.242E+01  2.594E+00 -2.511E-01
   1    8    6     9     1    0.0000E+00  0.0000E+00   0.0000E+00  0.000E+00  0.000E+00  0.000E+00  1.07875E+03  0.000E+00  4.000E+00  0.000E+00  1.000E+00
   1    8    5     9     2    0.0000E+00  0.0000E+00   0.0000E+00  0.000E+00  0.000E+00  0.000E+00  1.07825E+03  0.000E+00  4.000E+00  0.000E+00  1.000E+00





UNSATURATED ZONE PACKAGE VOLUMETRIC BUDGET FOR  TIME STEP    30 STRESS PERIOD   23
  ------------------------------------------------------------------------------



     CUMULATIVE VOLUMES      L**3       RATES FOR THIS TIME STEP      L**3/T
     ------------------                 ------------------------

           IN:                                      IN:
           ---                                      ---
        INFILTRATION =   859856939.1696          INFILTRATION =           0.8475

          OUT:                                     OUT:
          ----                                     ----
              UZF ET =   856106071.5029                UZF ET =           0.8475
        UZF RECHARGE =       73224.0000          UZF RECHARGE =       0.0000E+00

            IN - OUT =     3677643.6667              IN - OUT =       0.0000E+00

          STORAGE:                                 STORAGE:
          --------                                 --------
      STORAGE CHANGE =     3677642.2668        STORAGE CHANGE =      -2.6559E-15

 PERCENT DISCREPANCY IS DIFFERENCE BETWEEN IN-OUT MINUS CHANGE IN STORAGE
 DIVIDED BY THE AVERAGE OF IN AND OUT TIMES 100

 PERCENT DISCREPANCY =           0.00     PERCENT DISCREPANCY =           0.00






1
  VOLUMETRIC BUDGET FOR AGRICULTURAL FIELDS AT  END OF TIME STEP   30, STRESS PERIOD  23
  ------------------------------------------------------------------------------

     CUMULATIVE VOLUMES      L**3       RATES FOR THIS TIME STEP      L**3/T
     ------------------                 ------------------------

           IN:                                      IN:
           ---                                      ---
           AG WELLS      =   428269280.0000             AG WELLS      =           0.0000
      DIVERSION SEGMENTS =   382511616.0000        DIVERSION SEGMENTS =           0.0000
           GW IRRIGATION =           0.0000             GW IRRIGATION =           0.0000
           SW IRRIGATION =           0.0000             SW IRRIGATION =           0.0000
        SYSTEM LOSSES GW =           0.0000          SYSTEM LOSSES GW =           0.0000
        SYSTEM LOSSES SW =           0.0000          SYSTEM LOSSES SW =           0.0000

                TOTAL IN =   810780928.0000                  TOTAL IN =           0.0000

          OUT:                                     OUT:
          ----                                     ----
           AG WELLS      =           0.0000             AG WELLS      =           0.0000
      DIVERSION SEGMENTS =           0.0000        DIVERSION SEGMENTS =           0.0000
           GW IRRIGATION =   428269280.0000             GW IRRIGATION =           0.0000
           SW IRRIGATION =   382519104.0000             SW IRRIGATION =           0.0000
        SYSTEM LOSSES GW =           0.0000          SYSTEM LOSSES GW =           0.0000
        SYSTEM LOSSES SW =           0.0000          SYSTEM LOSSES SW =           0.0000

               TOTAL OUT =   810788352.0000                 TOTAL OUT =           0.0000

                IN - OUT =       -7424.0000                  IN - OUT =           0.0000

     PERCENT DISCREPANCY =          -0.00         PERCENT DISCREPANCY =           0.00



1
  VOLUMETRIC BUDGET FOR ENTIRE MODEL AT END OF TIME STEP   30, STRESS PERIOD  23
  ------------------------------------------------------------------------------

     CUMULATIVE VOLUMES      L**3       RATES FOR THIS TIME STEP      L**3/T
     ------------------                 ------------------------

           IN:                                      IN:
           ---                                      ---
             STORAGE     =   578327616.0000               STORAGE     =           8.2841
       CONSTANT HEAD     =           0.0000         CONSTANT HEAD     =           0.0000
     HEAD DEP BOUNDS     =    16691333.0000       HEAD DEP BOUNDS     =           0.2883
      STREAM LEAKAGE     =   679061248.0000        STREAM LEAKAGE     =          11.3329
        UZF RECHARGE     =       73223.9531          UZF RECHARGE     =           0.0000
               GW ET     =           0.0000                 GW ET     =           0.0000
     SURFACE LEAKAGE     =           0.0000       SURFACE LEAKAGE     =           0.0000
           AG WELLS      =           0.0000             AG WELLS      =           0.0000

                TOTAL IN =  1274153472.0000                  TOTAL IN =          19.9054

          OUT:                                     OUT:
          ----                                     ----
             STORAGE     =   234192752.0000               STORAGE     =           9.5811
       CONSTANT HEAD     =           0.0000         CONSTANT HEAD     =           0.0000
     HEAD DEP BOUNDS     =    16682878.0000       HEAD DEP BOUNDS     =           0.2871
      STREAM LEAKAGE     =   595014848.0000        STREAM LEAKAGE     =          10.0372
        UZF RECHARGE     =           0.0000          UZF RECHARGE     =           0.0000
               GW ET     =           0.0000                 GW ET     =           0.0000
     SURFACE LEAKAGE     =           0.0000       SURFACE LEAKAGE     =           0.0000
           AG WELLS      =   428269280.0000             AG WELLS      =           0.0000

               TOTAL OUT =  1274159744.0000                 TOTAL OUT =          19.9054

                IN - OUT =       -6272.0000                  IN - OUT =       7.6294E-06

     PERCENT DISCREPANCY =          -0.00         PERCENT DISCREPANCY =           0.00






         TIME SUMMARY AT END OF TIME STEP   30 IN STRESS PERIOD   23
                    SECONDS     MINUTES      HOURS       DAYS        YEARS
                    -----------------------------------------------------------
   TIME STEP LENGTH  87667.      1461.1      24.352      1.0147     2.77799E-03
 STRESS PERIOD TIME 2.63000E+06  43833.      730.56      30.440     8.33397E-02
         TOTAL TIME 5.79467E+07 9.65778E+05  16096.      670.68      1.8362    
1
1
                            STRESS PERIOD NO.   24, LENGTH =   2630000.    
                            -----------------------------------------------

                              NUMBER OF TIME STEPS =    30

                               MULTIPLIER FOR DELT =     1.000

                            INITIAL TIME STEP SIZE =   87666.66    

 REUSING NON-PARAMETER GHB CELLS FROM LAST STRESS PERIOD

      2 GHB CELLS

 REUSING STREAM SEGMENT DATA FROM LAST STRESS PERIOD



            AREAL INFILTRATION RATE
 READING ON UNIT   19 WITH FORMAT: (FREE)              

            1           2           3           4           5           6           7           8           9          10
 ........................................................................................................................
   1   1.0000E-10  2.0000E-10   0.000       0.000       0.000       0.000       0.000       0.000       0.000       0.000    
   2   2.0000E-10  1.0000E-10  2.0000E-10   0.000       0.000      8.0000E-10  8.0000E-10  5.0000E-10   0.000       0.000    
   3    0.000      5.0000E-10  1.0000E-10  1.0000E-10  8.0000E-10  8.0000E-10  5.0000E-10  5.0000E-10   0.000       0.000    
   4   8.0000E-10  5.0000E-10  1.0000E-10  1.0000E-10  1.0000E-10  1.0000E-10  1.0000E-10  1.0000E-10  2.0000E-10   0.000    
   5   8.0000E-10  5.0000E-10  1.0000E-10  1.0000E-10  1.0000E-10  1.0000E-10  1.0000E-10  1.0000E-10  1.0000E-10  1.0000E-10
   6   8.0000E-10  5.0000E-10  5.0000E-10  2.0000E-10  2.0000E-10  1.0000E-10  1.0000E-10  1.0000E-10  1.0000E-10  5.0000E-10
   7   8.0000E-10  5.0000E-10  5.0000E-10  2.0000E-10  2.0000E-10  1.0000E-10  1.0000E-10  2.0000E-10  2.0000E-10   0.000    
   8    0.000      5.0000E-10  5.0000E-10  2.0000E-10  2.0000E-10  1.0000E-10  1.0000E-10  2.0000E-10  5.0000E-10   0.000    
   9    0.000      5.0000E-10  5.0000E-10  2.0000E-10  2.0000E-10  1.0000E-10  1.0000E-10  2.0000E-10  5.0000E-10   0.000    
  10    0.000      5.0000E-10  5.0000E-10  2.0000E-10  2.0000E-10  1.0000E-10  1.0000E-10  2.0000E-10  5.0000E-10  8.0000E-10
  11    0.000      1.0000E-10  1.0000E-10  1.0000E-10  1.0000E-10  1.0000E-10  1.0000E-10  2.0000E-10  5.0000E-10   0.000    
  12   1.0000E-10  1.0000E-10  1.0000E-10  1.0000E-10  1.0000E-10  1.0000E-10  1.0000E-10  1.0000E-10  2.0000E-10   0.000    
  13   1.0000E-10  1.0000E-10  2.0000E-10  2.0000E-10  2.0000E-10  2.0000E-10  2.0000E-10  1.0000E-10  1.0000E-10   0.000    
  14    0.000      2.0000E-10  5.0000E-10  5.0000E-10  5.0000E-10  5.0000E-10  5.0000E-10  2.0000E-10  1.0000E-10   0.000    
  15    0.000       0.000      8.0000E-10  8.0000E-10  8.0000E-10  8.0000E-10   0.000       0.000       0.000       0.000    

                  ET RATE =  5.000000E-10

 USING ET EXTINCTION DEPTH FROM PREVIOUS STRESS PERIOD. CURRENT PERIOD IS:      24

 USING EXTINCTION WATER CONTENT FROM PREVIOUS STRESS PERIOD. CURRENT PERIOD IS:      24

 USING AIR ENTRY PRESSURE FROM PREVIOUS STRESS PERIOD. CURRENT PERIOD IS:      24

 USING ROOT PRESSURE HEAD FROM PREVIOUS STRESS PERIOD. CURRENT PERIOD IS:      24

 USING ROOT ACTIVITY FROM PREVIOUS STRESS PERIOD. CURRENT PERIOD IS:      24

 PROCESSING AG STRESS PERIOD DATA

 READING AG STRESS PERIOD DATA

 READING IRRIGATION SEGMENT

 READING IRRIGATION WELL

 READING SUPPLEMENTAL WELL

 END PROCESSING AG STRESS PERIOD DATA OPTIONS
 
 SOLVING FOR HEAD 
                                                   Max.-Head-Change                         Max.-Flux-Residual
  Residual-Control   Outer-Iter.   Inner-Iter.     Column Row Layer    Maximum-Head-Change  Column Row Layer    Maximum-Flux-Residual          L2-NORM 
          0                 1           2             4    7     1       0.3387928738E-01       4    7    1         0.1785667312E+01      0.3628159349E+01
          0                 2           2             4    7     1      -0.3295554153E-02       4    7    1        -0.1785683183E+00      0.3628168140E+00
          0                 3           2             4    7     1       0.2244147924E-03       4    7    1         0.1249977266E-01      0.2539717861E-01
          0                 4           1             4    7     1      -0.8929675684E-05       4    7    1        -0.5112414915E-03      0.1038746705E-02

    ------------------------------------------------
       NWT REQUIRED            4 OUTER ITERATIONS 
       AND A TOTAL OF          7 INNER ITERATIONS.
    ------------------------------------------------

 NO OUTPUT CONTROL FOR STRESS PERIOD   24   TIME STEP    1
 
 SOLVING FOR HEAD 
                                                   Max.-Head-Change                         Max.-Flux-Residual
  Residual-Control   Outer-Iter.   Inner-Iter.     Column Row Layer    Maximum-Head-Change  Column Row Layer    Maximum-Flux-Residual          L2-NORM 
          0                 1           2             4    7     1       0.3339833764E-01       4    7    1         0.1760305998E+01      0.3578605236E+01
          0                 2           2             4    7     1      -0.3248770323E-02       4    7    1        -0.1760321502E+00      0.3578612752E+00
          0                 3           2             4    7     1       0.2212289923E-03       4    7    1         0.1232224118E-01      0.2505026630E-01
          0                 4           1             4    7     1      -0.8802909605E-05       4    7    1        -0.5039804287E-03      0.1024559669E-02

    ------------------------------------------------
       NWT REQUIRED            4 OUTER ITERATIONS 
       AND A TOTAL OF          7 INNER ITERATIONS.
    ------------------------------------------------

 NO OUTPUT CONTROL FOR STRESS PERIOD   24   TIME STEP    2
 
 SOLVING FOR HEAD 
                                                   Max.-Head-Change                         Max.-Flux-Residual
  Residual-Control   Outer-Iter.   Inner-Iter.     Column Row Layer    Maximum-Head-Change  Column Row Layer    Maximum-Flux-Residual          L2-NORM 
          0                 1           2             4    7     1       0.3292445308E-01       4    7    1         0.1735310928E+01      0.3529680638E+01
          0                 2           2             4    7     1      -0.3202673745E-02       4    7    1        -0.1735326070E+00      0.3529688167E+00
          0                 3           2             4    7     1       0.2180899913E-03       4    7    1         0.1214727341E-01      0.2470780943E-01
          0                 4           1             4    7     1      -0.8678005829E-05       4    7    1        -0.4968242383E-03      0.1010548525E-02

    ------------------------------------------------
       NWT REQUIRED            4 OUTER ITERATIONS 
       AND A TOTAL OF          7 INNER ITERATIONS.
    ------------------------------------------------

 NO OUTPUT CONTROL FOR STRESS PERIOD   24   TIME STEP    3
 
 SOLVING FOR HEAD 
                                                   Max.-Head-Change                         Max.-Flux-Residual
  Residual-Control   Outer-Iter.   Inner-Iter.     Column Row Layer    Maximum-Head-Change  Column Row Layer    Maximum-Flux-Residual          L2-NORM 
          0                 1           2             4    7     1       0.3245788550E-01       4    7    1         0.1710696785E+01      0.3481854106E+01
          0                 2           2             4    7     1      -0.3157288919E-02       4    7    1        -0.1710711570E+00      0.3481861495E+00
          0                 3           2             4    7     1       0.2149994578E-03       4    7    1         0.1197497217E-01      0.2437302414E-01
          0                 4           1             4    7     1      -0.8555030556E-05       4    7    1        -0.4897771105E-03      0.9968573333E-03

    ------------------------------------------------
       NWT REQUIRED            4 OUTER ITERATIONS 
       AND A TOTAL OF          7 INNER ITERATIONS.
    ------------------------------------------------

 NO OUTPUT CONTROL FOR STRESS PERIOD   24   TIME STEP    4
 
 SOLVING FOR HEAD 
                                                   Max.-Head-Change                         Max.-Flux-Residual
  Residual-Control   Outer-Iter.   Inner-Iter.     Column Row Layer    Maximum-Head-Change  Column Row Layer    Maximum-Flux-Residual          L2-NORM 
          0                 1           2             4    7     1       0.3199833929E-01       4    7    1         0.1686447397E+01      0.3435084694E+01
          0                 2           2             4    7     1      -0.3112587085E-02       4    7    1        -0.1686461828E+00      0.3435091756E+00
          0                 3           2             4    7     1       0.2119554337E-03       4    7    1         0.1180522422E-01      0.2404563653E-01
          0                 4           1             4    7     1      -0.8433906074E-05       4    7    1        -0.4828344106E-03      0.9834678337E-03

    ------------------------------------------------
       NWT REQUIRED            4 OUTER ITERATIONS 
       AND A TOTAL OF          7 INNER ITERATIONS.
    ------------------------------------------------

 NO OUTPUT CONTROL FOR STRESS PERIOD   24   TIME STEP    5
 
 SOLVING FOR HEAD 
                                                   Max.-Head-Change                         Max.-Flux-Residual
  Residual-Control   Outer-Iter.   Inner-Iter.     Column Row Layer    Maximum-Head-Change  Column Row Layer    Maximum-Flux-Residual          L2-NORM 
          0                 1           2             4    7     1       0.3154604807E-01       4    7    1         0.1662576667E+01      0.3389335994E+01
          0                 2           2             4    7     1      -0.3068590974E-02       4    7    1        -0.1662590750E+00      0.3389342979E+00
          0                 3           2             4    7     1       0.2089594668E-03       4    7    1         0.1163812694E-01      0.2372539860E-01
          0                 4           1             4    7     1      -0.8314693861E-05       4    7    1        -0.4760001268E-03      0.9703680780E-03

    ------------------------------------------------
       NWT REQUIRED            4 OUTER ITERATIONS 
       AND A TOTAL OF          7 INNER ITERATIONS.
    ------------------------------------------------

 NO OUTPUT CONTROL FOR STRESS PERIOD   24   TIME STEP    6
 
 SOLVING FOR HEAD 
                                                   Max.-Head-Change                         Max.-Flux-Residual
  Residual-Control   Outer-Iter.   Inner-Iter.     Column Row Layer    Maximum-Head-Change  Column Row Layer    Maximum-Flux-Residual          L2-NORM 
          0                 1           2             4    7     1       0.3110083148E-01       4    7    1         0.1639074784E+01      0.3344586381E+01
          0                 2           2             4    7     1      -0.3025283037E-02       4    7    1        -0.1639088524E+00      0.3344593082E+00
          0                 3           2             4    7     1       0.2060103616E-03       4    7    1         0.1147361162E-01      0.2341214240E-01
          0                 4           1             4    7     1      -0.8197345795E-05       4    7    1        -0.4692714242E-03      0.9575596131E-03

    ------------------------------------------------
       NWT REQUIRED            4 OUTER ITERATIONS 
       AND A TOTAL OF          7 INNER ITERATIONS.
    ------------------------------------------------

 NO OUTPUT CONTROL FOR STRESS PERIOD   24   TIME STEP    7
 
 SOLVING FOR HEAD 
                                                   Max.-Head-Change                         Max.-Flux-Residual
  Residual-Control   Outer-Iter.   Inner-Iter.     Column Row Layer    Maximum-Head-Change  Column Row Layer    Maximum-Flux-Residual          L2-NORM 
          0                 1           2             4    7     1       0.3066263433E-01       4    7    1         0.1615939704E+01      0.3300787992E+01
          0                 2           2             4    7     1      -0.2982657909E-02       4    7    1        -0.1615953108E+00      0.3300794538E+00
          0                 3           2             4    7     1       0.2031077533E-03       4    7    1         0.1131166394E-01      0.2310555686E-01
          0                 4           1             4    7     1      -0.8081848635E-05       4    7    1        -0.4626477730E-03      0.9450205493E-03

    ------------------------------------------------
       NWT REQUIRED            4 OUTER ITERATIONS 
       AND A TOTAL OF          7 INNER ITERATIONS.
    ------------------------------------------------

 NO OUTPUT CONTROL FOR STRESS PERIOD   24   TIME STEP    8
 
 SOLVING FOR HEAD 
                                                   Max.-Head-Change                         Max.-Flux-Residual
  Residual-Control   Outer-Iter.   Inner-Iter.     Column Row Layer    Maximum-Head-Change  Column Row Layer    Maximum-Flux-Residual          L2-NORM 
          0                 1           2             4    7     1       0.3023153964E-01       4    7    1         0.1593175878E+01      0.3257927641E+01
          0                 2           2             4    7     1      -0.2940723667E-02       4    7    1        -0.1593188951E+00      0.3257933845E+00
          0                 3           2             4    7     1       0.2002521917E-03       4    7    1         0.1115231510E-01      0.2280552970E-01
          0                 4           1             4    7     1      -0.7968222874E-05       4    7    1        -0.4561303856E-03      0.9327478745E-03

    ------------------------------------------------
       NWT REQUIRED            4 OUTER ITERATIONS 
       AND A TOTAL OF          7 INNER ITERATIONS.
    ------------------------------------------------

 NO OUTPUT CONTROL FOR STRESS PERIOD   24   TIME STEP    9
 
 SOLVING FOR HEAD 
                                                   Max.-Head-Change                         Max.-Flux-Residual
  Residual-Control   Outer-Iter.   Inner-Iter.     Column Row Layer    Maximum-Head-Change  Column Row Layer    Maximum-Flux-Residual          L2-NORM 
          0                 1           2             4    7     1       0.2980734096E-01       4    7    1         0.1570772990E+01      0.3215963838E+01
          0                 2           2             4    7     1      -0.2899460226E-02       4    7    1        -0.1570785737E+00      0.3215969796E+00
          0                 3           2             4    7     1       0.1974423091E-03       4    7    1         0.1099549286E-01      0.2251177465E-01
          0                 4           1             4    7     1      -0.7856415093E-05       4    7    1        -0.4497163382E-03      0.9207330286E-03

    ------------------------------------------------
       NWT REQUIRED            4 OUTER ITERATIONS 
       AND A TOTAL OF          7 INNER ITERATIONS.
    ------------------------------------------------

 NO OUTPUT CONTROL FOR STRESS PERIOD   24   TIME STEP   10
 
 SOLVING FOR HEAD 
                                                   Max.-Head-Change                         Max.-Flux-Residual
  Residual-Control   Outer-Iter.   Inner-Iter.     Column Row Layer    Maximum-Head-Change  Column Row Layer    Maximum-Flux-Residual          L2-NORM 
          0                 1           2             4    7     1       0.2939010639E-01       4    7    1         0.1548734955E+01      0.3174882493E+01
          0                 2           2             4    7     1      -0.2858874212E-02       4    7    1        -0.1548747384E+00      0.3174888208E+00
          0                 3           2             4    7     1       0.1946785567E-03       4    7    1         0.1084122461E-01      0.2222420446E-01
          0                 4           1             4    7     1      -0.7746443022E-05       4    7    1        -0.4434067660E-03      0.9089717600E-03

    ------------------------------------------------
       NWT REQUIRED            4 OUTER ITERATIONS 
       AND A TOTAL OF          7 INNER ITERATIONS.
    ------------------------------------------------

 NO OUTPUT CONTROL FOR STRESS PERIOD   24   TIME STEP   11
 
 SOLVING FOR HEAD 
                                                   Max.-Head-Change                         Max.-Flux-Residual
  Residual-Control   Outer-Iter.   Inner-Iter.     Column Row Layer    Maximum-Head-Change  Column Row Layer    Maximum-Flux-Residual          L2-NORM 
          0                 1           2             4    7     1       0.2897975967E-01       4    7    1         0.1527057995E+01      0.3134649573E+01
          0                 2           2             4    7     1      -0.2818957847E-02       4    7    1        -0.1527070112E+00      0.3134403737E+00
          0                 3           2             4    7     1       0.1919604042E-03       4    7    1         0.1068948393E-01      0.2194082633E-01
          0                 4           1             4    7     1      -0.7638284901E-05       4    7    1        -0.4372005480E-03      0.8974006632E-03

    ------------------------------------------------
       NWT REQUIRED            4 OUTER ITERATIONS 
       AND A TOTAL OF          7 INNER ITERATIONS.
    ------------------------------------------------

 NO OUTPUT CONTROL FOR STRESS PERIOD   24   TIME STEP   12
 
 SOLVING FOR HEAD 
                                                   Max.-Head-Change                         Max.-Flux-Residual
  Residual-Control   Outer-Iter.   Inner-Iter.     Column Row Layer    Maximum-Head-Change  Column Row Layer    Maximum-Flux-Residual          L2-NORM 
          0                 1           2             4    7     1       0.2857609193E-01       4    7    1         0.1505730865E+01      0.3095252807E+01
          0                 2           2             4    7     1      -0.2779691897E-02       4    7    1        -0.1505742675E+00      0.3095258778E+00
          0                 3           2             4    7     1       0.1892865431E-03       4    7    1         0.1054019210E-01      0.2166678956E-01
          0                 4           1             4    7     1      -0.7531889384E-05       4    7    1        -0.4310945026E-03      0.8861692564E-03

    ------------------------------------------------
       NWT REQUIRED            4 OUTER ITERATIONS 
       AND A TOTAL OF          7 INNER ITERATIONS.
    ------------------------------------------------

 NO OUTPUT CONTROL FOR STRESS PERIOD   24   TIME STEP   13
 
 SOLVING FOR HEAD 
                                                   Max.-Head-Change                         Max.-Flux-Residual
  Residual-Control   Outer-Iter.   Inner-Iter.     Column Row Layer    Maximum-Head-Change  Column Row Layer    Maximum-Flux-Residual          L2-NORM 
          0                 1           2             4    7     1       0.2817929101E-01       4    7    1         0.1484764611E+01      0.3056789875E+01
          0                 2           2             4    7     1      -0.2741093549E-02       4    7    1        -0.1484776122E+00      0.3056795565E+00
          0                 3           2             4    7     1       0.1866581432E-03       4    7    1         0.1039342645E-01      0.2139755691E-01
          0                 4           1             4    7     1      -0.7427303097E-05       4    7    1        -0.4250917900E-03      0.8751622774E-03

    ------------------------------------------------
       NWT REQUIRED            4 OUTER ITERATIONS 
       AND A TOTAL OF          7 INNER ITERATIONS.
    ------------------------------------------------

 NO OUTPUT CONTROL FOR STRESS PERIOD   24   TIME STEP   14
 
 SOLVING FOR HEAD 
                                                   Max.-Head-Change                         Max.-Flux-Residual
  Residual-Control   Outer-Iter.   Inner-Iter.     Column Row Layer    Maximum-Head-Change  Column Row Layer    Maximum-Flux-Residual          L2-NORM 
          0                 1           2             4    7     1       0.2778913948E-01       4    7    1         0.1464147096E+01      0.3019108903E+01
          0                 2           2             4    7     1      -0.2703142014E-02       4    7    1        -0.1464158315E+00      0.3019114315E+00
          0                 3           2             4    7     1       0.1840737885E-03       4    7    1         0.1024910202E-01      0.2113378574E-01
          0                 4           1             4    7     1      -0.7324469052E-05       4    7    1        -0.4191889009E-03      0.8643721477E-03

    ------------------------------------------------
       NWT REQUIRED            4 OUTER ITERATIONS 
       AND A TOTAL OF          7 INNER ITERATIONS.
    ------------------------------------------------

 NO OUTPUT CONTROL FOR STRESS PERIOD   24   TIME STEP   15
 
 SOLVING FOR HEAD 
                                                   Max.-Head-Change                         Max.-Flux-Residual
  Residual-Control   Outer-Iter.   Inner-Iter.     Column Row Layer    Maximum-Head-Change  Column Row Layer    Maximum-Flux-Residual          L2-NORM 
          0                 1           2             4    7     1       0.2740541293E-01       4    7    1         0.1443867026E+01      0.2982163507E+01
          0                 2           2             4    7     1      -0.2665815464E-02       4    7    1        -0.1443877957E+00      0.2982168689E+00
          0                 3           2             4    7     1       0.1815319932E-03       4    7    1         0.1010713974E-01      0.2087516468E-01
          0                 4           1             4    7     1      -0.7223328764E-05       4    7    1        -0.4133826467E-03      0.8537957503E-03

    ------------------------------------------------
       NWT REQUIRED            4 OUTER ITERATIONS 
       AND A TOTAL OF          7 INNER ITERATIONS.
    ------------------------------------------------

 NO OUTPUT CONTROL FOR STRESS PERIOD   24   TIME STEP   16
 
 SOLVING FOR HEAD 
                                                   Max.-Head-Change                         Max.-Flux-Residual
  Residual-Control   Outer-Iter.   Inner-Iter.     Column Row Layer    Maximum-Head-Change  Column Row Layer    Maximum-Flux-Residual          L2-NORM 
          0                 1           2             4    7     1       0.2702843007E-01       4    7    1         0.1423942018E+01      0.2945962192E+01
          0                 2           2             4    7     1      -0.2629144900E-02       4    7    1        -0.1423952670E+00      0.2945967142E+00
          0                 3           2             4    7     1       0.1790348666E-03       4    7    1         0.9967662912E-02      0.2062175295E-01
          0                 4           1             4    7     1      -0.7123965356E-05       4    7    1        -0.4076780126E-03      0.8434334546E-03

    ------------------------------------------------
       NWT REQUIRED            4 OUTER ITERATIONS 
       AND A TOTAL OF          7 INNER ITERATIONS.
    ------------------------------------------------

 NO OUTPUT CONTROL FOR STRESS PERIOD   24   TIME STEP   17
 
 SOLVING FOR HEAD 
                                                   Max.-Head-Change                         Max.-Flux-Residual
  Residual-Control   Outer-Iter.   Inner-Iter.     Column Row Layer    Maximum-Head-Change  Column Row Layer    Maximum-Flux-Residual          L2-NORM 
          0                 1           2             4    7     1       0.2665768124E-01       4    7    1         0.1404344717E+01      0.2910454861E+01
          0                 2           2             4    7     1      -0.2593080831E-02       4    7    1        -0.1404355095E+00      0.2910460715E+00
          0                 3           2             4    7     1       0.1765790411E-03       4    7    1         0.9830480094E-02      0.2037320785E-01
          0                 4           1             4    7     1      -0.7026245855E-05       4    7    1        -0.4020672377E-03      0.8332632956E-03

    ------------------------------------------------
       NWT REQUIRED            4 OUTER ITERATIONS 
       AND A TOTAL OF          7 INNER ITERATIONS.
    ------------------------------------------------

 NO OUTPUT CONTROL FOR STRESS PERIOD   24   TIME STEP   18
 
 SOLVING FOR HEAD 
                                                   Max.-Head-Change                         Max.-Flux-Residual
  Residual-Control   Outer-Iter.   Inner-Iter.     Column Row Layer    Maximum-Head-Change  Column Row Layer    Maximum-Flux-Residual          L2-NORM 
          0                 1           2             4    7     1       0.2629335003E-01       4    7    1         0.1385085262E+01      0.2875646582E+01
          0                 2           2             4    7     1      -0.2557640956E-02       4    7    1        -0.1385095373E+00      0.2875652267E+00
          0                 3           2             4    7     1       0.1741657213E-03       4    7    1         0.9695662244E-02      0.2012954410E-01
          0                 4           1             4    7     1      -0.6930217923E-05       4    7    1        -0.3965531930E-03      0.8233043247E-03

    ------------------------------------------------
       NWT REQUIRED            4 OUTER ITERATIONS 
       AND A TOTAL OF          7 INNER ITERATIONS.
    ------------------------------------------------

 NO OUTPUT CONTROL FOR STRESS PERIOD   24   TIME STEP   19
 
 SOLVING FOR HEAD 
                                                   Max.-Head-Change                         Max.-Flux-Residual
  Residual-Control   Outer-Iter.   Inner-Iter.     Column Row Layer    Maximum-Head-Change  Column Row Layer    Maximum-Flux-Residual          L2-NORM 
          0                 1           2             4    7     1       0.2593533136E-01       4    7    1         0.1366158553E+01      0.2841504496E+01
          0                 2           2             4    7     1      -0.2522815115E-02       4    7    1        -0.1366168403E+00      0.2841509854E+00
          0                 3           2             4    7     1       0.1717942139E-03       4    7    1         0.9563173629E-02      0.1989055135E-01
          0                 4           1             4    7     1      -0.6835853240E-05       4    7    1        -0.3911343865E-03      0.8135211327E-03

    ------------------------------------------------
       NWT REQUIRED            4 OUTER ITERATIONS 
       AND A TOTAL OF          7 INNER ITERATIONS.
    ------------------------------------------------

 NO OUTPUT CONTROL FOR STRESS PERIOD   24   TIME STEP   20
 
 SOLVING FOR HEAD 
                                                   Max.-Head-Change                         Max.-Flux-Residual
  Residual-Control   Outer-Iter.   Inner-Iter.     Column Row Layer    Maximum-Head-Change  Column Row Layer    Maximum-Flux-Residual          L2-NORM 
          0                 1           2             4    7     1       0.2558339024E-01       4    7    1         0.1347551823E+01      0.2808019938E+01
          0                 2           2             4    7     1      -0.2488580464E-02       4    7    1        -0.1347561419E+00      0.2808024976E+00
          0                 3           2             4    7     1       0.1694629649E-03       4    7    1         0.9432924943E-02      0.1965615157E-01
          0                 4           1             4    7     1      -0.6743090443E-05       4    7    1        -0.3858071962E-03      0.8039390619E-03

    ------------------------------------------------
       NWT REQUIRED            4 OUTER ITERATIONS 
       AND A TOTAL OF          7 INNER ITERATIONS.
    ------------------------------------------------

 NO OUTPUT CONTROL FOR STRESS PERIOD   24   TIME STEP   21
 
 SOLVING FOR HEAD 
                                                   Max.-Head-Change                         Max.-Flux-Residual
  Residual-Control   Outer-Iter.   Inner-Iter.     Column Row Layer    Maximum-Head-Change  Column Row Layer    Maximum-Flux-Residual          L2-NORM 
          0                 1           2             4    7     1       0.2523756197E-01       4    7    1         0.1329267518E+01      0.2775167375E+01
          0                 2           2             4    7     1      -0.2454940437E-02       4    7    1        -0.1329276866E+00      0.2775172132E+00
          0                 3           2             4    7     1       0.1671722073E-03       4    7    1         0.9304933245E-02      0.1942618382E-01
          0                 4           1             4    7     1      -0.6651938856E-05       4    7    1        -0.3805723327E-03      0.7945332051E-03

    ------------------------------------------------
       NWT REQUIRED            4 OUTER ITERATIONS 
       AND A TOTAL OF          7 INNER ITERATIONS.
    ------------------------------------------------

 NO OUTPUT CONTROL FOR STRESS PERIOD   24   TIME STEP   22
 
 SOLVING FOR HEAD 
                                                   Max.-Head-Change                         Max.-Flux-Residual
  Residual-Control   Outer-Iter.   Inner-Iter.     Column Row Layer    Maximum-Head-Change  Column Row Layer    Maximum-Flux-Residual          L2-NORM 
          0                 1           2             4    7     1       0.2489774161E-01       4    7    1         0.1311300154E+01      0.2742937592E+01
          0                 2           2             4    7     1      -0.2421884824E-02       4    7    1        -0.1311309260E+00      0.2742942149E+00
          0                 3           2             4    7     1       0.1649212461E-03       4    7    1         0.9179160164E-02      0.1920057968E-01
          0                 4           1             4    7     1      -0.6562371540E-05       4    7    1        -0.3754282222E-03      0.7853024267E-03

    ------------------------------------------------
       NWT REQUIRED            4 OUTER ITERATIONS 
       AND A TOTAL OF          7 INNER ITERATIONS.
    ------------------------------------------------

 NO OUTPUT CONTROL FOR STRESS PERIOD   24   TIME STEP   23
 
 SOLVING FOR HEAD 
                                                   Max.-Head-Change                         Max.-Flux-Residual
  Residual-Control   Outer-Iter.   Inner-Iter.     Column Row Layer    Maximum-Head-Change  Column Row Layer    Maximum-Flux-Residual          L2-NORM 
          0                 1           2             4    7     1       0.2456382331E-01       4    7    1         0.1293644290E+01      0.2711308207E+01
          0                 2           2             4    7     1      -0.2389403330E-02       4    7    1        -0.1293653160E+00      0.2711312407E+00
          0                 3           2             4    7     1       0.1627093802E-03       4    7    1         0.9055567639E-02      0.1897916199E-01
          0                 4           1             4    7     1      -0.6474359022E-05       4    7    1        -0.3703732755E-03      0.7762459222E-03

    ------------------------------------------------
       NWT REQUIRED            4 OUTER ITERATIONS 
       AND A TOTAL OF          7 INNER ITERATIONS.
    ------------------------------------------------

 NO OUTPUT CONTROL FOR STRESS PERIOD   24   TIME STEP   24
 
 SOLVING FOR HEAD 
                                                   Max.-Head-Change                         Max.-Flux-Residual
  Residual-Control   Outer-Iter.   Inner-Iter.     Column Row Layer    Maximum-Head-Change  Column Row Layer    Maximum-Flux-Residual          L2-NORM 
          0                 1           2             4    7     1       0.2423570426E-01       4    7    1         0.1276294437E+01      0.2680267451E+01
          0                 2           2             4    7     1      -0.2357485954E-02       4    7    1        -0.1276303077E+00      0.2680271395E+00
          0                 3           2             4    7     1       0.1605359285E-03       4    7    1         0.8934117224E-02      0.1876187433E-01
          0                 4           1             4    7     1      -0.6387875399E-05       4    7    1        -0.3654059356E-03      0.7673638560E-03

    ------------------------------------------------
       NWT REQUIRED            4 OUTER ITERATIONS 
       AND A TOTAL OF          7 INNER ITERATIONS.
    ------------------------------------------------

 NO OUTPUT CONTROL FOR STRESS PERIOD   24   TIME STEP   25
 
 SOLVING FOR HEAD 
                                                   Max.-Head-Change                         Max.-Flux-Residual
  Residual-Control   Outer-Iter.   Inner-Iter.     Column Row Layer    Maximum-Head-Change  Column Row Layer    Maximum-Flux-Residual          L2-NORM 
          0                 1           2             4    7     1       0.2391328109E-01       4    7    1         0.1259245264E+01      0.2649799674E+01
          0                 2           2             4    7     1      -0.2326122640E-02       4    7    1        -0.1259253681E+00      0.2649803329E+00
          0                 3           2             4    7     1       0.1584002065E-03       4    7    1         0.8814771616E-02      0.1854859934E-01
          0                 4           1             4    7     1      -0.6302893270E-05       4    7    1        -0.3605247014E-03      0.7586356651E-03

    ------------------------------------------------
       NWT REQUIRED            4 OUTER ITERATIONS 
       AND A TOTAL OF          7 INNER ITERATIONS.
    ------------------------------------------------

 NO OUTPUT CONTROL FOR STRESS PERIOD   24   TIME STEP   26
 
 SOLVING FOR HEAD 
                                                   Max.-Head-Change                         Max.-Flux-Residual
  Residual-Control   Outer-Iter.   Inner-Iter.     Column Row Layer    Maximum-Head-Change  Column Row Layer    Maximum-Flux-Residual          L2-NORM 
          0                 1           2             4    7     1       0.2359644913E-01       4    7    1         0.1242491412E+01      0.2619894390E+01
          0                 2           2             4    7     1      -0.2295303206E-02       4    7    1        -0.1242499611E+00      0.2619897824E+00
          0                 3           2             4    7     1       0.1563015201E-03       4    7    1         0.8697493272E-02      0.1833926089E-01
          0                 4           1             4    7     1      -0.6219384084E-05       4    7    1        -0.3557279963E-03      0.7500787090E-03

    ------------------------------------------------
       NWT REQUIRED            4 OUTER ITERATIONS 
       AND A TOTAL OF          7 INNER ITERATIONS.
    ------------------------------------------------

 NO OUTPUT CONTROL FOR STRESS PERIOD   24   TIME STEP   27
 
 SOLVING FOR HEAD 
                                                   Max.-Head-Change                         Max.-Flux-Residual
  Residual-Control   Outer-Iter.   Inner-Iter.     Column Row Layer    Maximum-Head-Change  Column Row Layer    Maximum-Flux-Residual          L2-NORM 
          0                 1           2             4    7     1       0.2328510321E-01       4    7    1         0.1226027455E+01      0.2590528316E+01
          0                 2           2             4    7     1      -0.2265017424E-02       4    7    1        -0.1226035442E+00      0.2590531437E+00
          0                 3           2             4    7     1       0.1542391742E-03       4    7    1         0.8582244246E-02      0.1813373027E-01
          0                 4           1             4    7     1      -0.6137321936E-05       4    7    1        -0.3510143299E-03      0.7417310248E-03

    ------------------------------------------------
       NWT REQUIRED            4 OUTER ITERATIONS 
       AND A TOTAL OF          7 INNER ITERATIONS.
    ------------------------------------------------

 NO OUTPUT CONTROL FOR STRESS PERIOD   24   TIME STEP   28
 
 SOLVING FOR HEAD 
                                                   Max.-Head-Change                         Max.-Flux-Residual
  Residual-Control   Outer-Iter.   Inner-Iter.     Column Row Layer    Maximum-Head-Change  Column Row Layer    Maximum-Flux-Residual          L2-NORM 
          0                 1           2             4    7     1       0.2297927542E-01       4    7    1         0.1209855258E+01      0.2561693662E+01
          0                 2           2             4    7     1      -0.2235268414E-02       4    7    1        -0.1209863039E+00      0.2561696512E+00
          0                 3           2             4    7     1       0.1522133794E-03       4    7    1         0.8469037562E-02      0.1793185217E-01
          0                 4           1             4    7     1      -0.6056713044E-05       4    7    1        -0.3463841442E-03      0.7334131819E-03

    ------------------------------------------------
       NWT REQUIRED            4 OUTER ITERATIONS 
       AND A TOTAL OF          7 INNER ITERATIONS.
    ------------------------------------------------

 NO OUTPUT CONTROL FOR STRESS PERIOD   24   TIME STEP   29
 
 SOLVING FOR HEAD 
                                                   Max.-Head-Change                         Max.-Flux-Residual
  Residual-Control   Outer-Iter.   Inner-Iter.     Column Row Layer    Maximum-Head-Change  Column Row Layer    Maximum-Flux-Residual          L2-NORM 
          0                 1           2             4    7     1       0.2267885551E-01       4    7    1         0.1193969167E+01      0.2533375773E+01
          0                 2           2             4    7     1      -0.2206045452E-02       4    7    1        -0.1193976747E+00      0.2533378327E+00
          0                 3           2             4    7     1       0.1502234074E-03       4    7    1         0.8357833674E-02      0.1773361746E-01
          0                 4           1             4    7     1      -0.5977530698E-05       4    7    1        -0.3418359217E-03      0.7253028724E-03

    ------------------------------------------------
       NWT REQUIRED            4 OUTER ITERATIONS 
       AND A TOTAL OF          7 INNER ITERATIONS.
    ------------------------------------------------

 NO OUTPUT CONTROL FOR STRESS PERIOD   24   TIME STEP   30



 STREAM LISTING     PERIOD     24   STEP       30

 LAYER ROW COL. STREAM  RCH.  FLOW INTO     FLOW TO   FLOW OUT OF   OVRLND.     DIRECT     STREAM       STREAM     STREAM     STREAM   STREAMBED  STREAMBED
                SEG.NO.  NO.  STRM. RCH.    AQUIFER    STRM. RCH.    RUNOFF     PRECIP       ET          HEAD       DEPTH      WIDTH   CONDCTNC.   GRADIENT

   1    1    1     1     1    7.8751E+00  1.2805E-01   7.7471E+00  0.000E+00  0.000E+00  0.000E+00  1.09388E+03  8.295E-01  7.430E+00  3.344E-02  1.276E+00
   1    2    2     1     2    7.7471E+00  1.9663E-01   7.5504E+00  0.000E+00  0.000E+00  0.000E+00  1.08888E+03  8.238E-01  7.346E+00  5.142E-02  1.275E+00
   1    3    3     1     3    7.5504E+00  1.6607E-01   7.3844E+00  0.000E+00  0.000E+00  0.000E+00  1.08324E+03  8.173E-01  7.251E+00  4.350E-02  1.272E+00
   1    3    4     1     4    7.3844E+00  1.5159E-01   7.2328E+00  0.000E+00  0.000E+00  0.000E+00  1.07822E+03  8.115E-01  7.166E+00  3.977E-02  1.270E+00
   1    4    5     2     1    5.2328E+00  2.7028E-01   4.9625E+00  0.000E+00  0.000E+00  0.000E+00  1.07240E+03  4.651E-01  1.200E+01  7.800E-02  1.155E+00
   1    5    6     2     2    4.9625E+00  2.0712E-01   4.7554E+00  0.000E+00  0.000E+00  0.000E+00  1.06696E+03  4.519E-01  1.200E+01  6.000E-02  1.151E+00
   1    6    6     2     3    4.7554E+00  2.0642E-01   4.5490E+00  0.000E+00  0.000E+00  0.000E+00  1.06223E+03  4.403E-01  1.200E+01  6.000E-02  1.147E+00
   1    7    6     2     4    4.5490E+00  2.0571E-01   4.3433E+00  0.000E+00  0.000E+00  0.000E+00  1.05750E+03  4.285E-01  1.200E+01  6.000E-02  1.143E+00
   1    8    6     2     5    4.3433E+00  2.0499E-01   4.1383E+00  0.000E+00  0.000E+00  0.000E+00  1.05278E+03  4.165E-01  1.200E+01  6.000E-02  1.139E+00
   1    3    5     3     1    2.0000E+00  2.8252E-01   1.7175E+00  0.000E+00  0.000E+00  0.000E+00  1.07555E+03  1.909E+00  9.636E+00  7.227E-02  1.955E+00
   1    3    6     3     2    1.7175E+00  2.4905E-01   1.4684E+00  0.000E+00  0.000E+00  0.000E+00  1.07264E+03  1.727E+00  8.909E+00  6.682E-02  1.864E+00
   1    3    7     3     3    1.4684E+00  1.9718E-01   1.2712E+00  0.000E+00  0.000E+00  0.000E+00  1.06987E+03  1.555E+00  8.218E+00  5.547E-02  1.777E+00
   1    4    8     3     4    1.2712E+00  2.2567E-01   1.0456E+00  0.000E+00  0.000E+00  0.000E+00  1.06682E+03  1.364E+00  7.455E+00  6.709E-02  1.682E+00
   1    5    8     3     5    1.0456E+00  1.5790E-01   8.8768E-01  0.000E+00  0.000E+00  0.000E+00  1.06362E+03  1.164E+00  6.655E+00  4.991E-02  1.582E+00
   1    6    8     3     6    8.8768E-01  5.5980E-02   8.3170E-01  0.000E+00  0.000E+00  0.000E+00  1.06158E+03  1.036E+00  6.145E+00  1.844E-02  1.518E+00
   1    5   10     4     1    1.0000E+01  9.0919E-02   9.9091E+00  0.000E+00  0.000E+00  0.000E+00  1.07836E+03  6.368E-01  1.000E+01  2.500E-02  1.212E+00
   1    5    9     4     2    9.9091E+00  1.8158E-01   9.7275E+00  0.000E+00  0.000E+00  0.000E+00  1.07154E+03  6.315E-01  1.000E+01  5.000E-02  1.211E+00
   1    6    8     4     3    9.7275E+00  1.2689E-01   9.6006E+00  0.000E+00  0.000E+00  0.000E+00  1.06381E+03  6.256E-01  1.000E+01  3.500E-02  1.209E+00
   1    6    8     5     1    1.0432E+01  2.2686E-01   1.0205E+01  0.000E+00  0.000E+00  0.000E+00  1.05868E+03  6.790E-01  1.542E+01  6.166E-02  1.226E+00
   1    7    7     5     2    1.0205E+01  2.7894E-01   9.9265E+00  0.000E+00  0.000E+00  0.000E+00  1.05417E+03  6.732E-01  1.519E+01  7.594E-02  1.224E+00
   1    8    7     5     3    9.9265E+00  1.9221E-01   9.7343E+00  0.000E+00  0.000E+00  0.000E+00  1.04992E+03  6.676E-01  1.497E+01  5.241E-02  1.223E+00
   1    8    6     5     4    9.7343E+00  1.3577E-01   9.5985E+00  0.000E+00  0.000E+00  0.000E+00  1.04691E+03  6.637E-01  1.482E+01  3.706E-02  1.221E+00
   1    9    6     6     1    1.3737E+01  2.3089E-01   1.3506E+01  0.000E+00  0.000E+00  0.000E+00  1.04358E+03  8.482E-01  1.200E+01  6.000E-02  1.283E+00
   1   10    7     6     2    1.3506E+01  2.3037E-01   1.3276E+01  0.000E+00  0.000E+00  0.000E+00  1.03902E+03  8.396E-01  1.200E+01  6.000E-02  1.280E+00
   1   11    7     6     3    1.3276E+01  2.2985E-01   1.3046E+01  0.000E+00  0.000E+00  0.000E+00  1.03447E+03  8.309E-01  1.200E+01  6.000E-02  1.277E+00
   1   12    7     6     4    1.3046E+01  2.2933E-01   1.2816E+01  0.000E+00  0.000E+00  0.000E+00  1.02991E+03  8.221E-01  1.200E+01  6.000E-02  1.274E+00
   1   13    7     6     5    1.2816E+01 -5.5226E-03   1.2822E+01  0.000E+00  0.000E+00  0.000E+00  1.02673E+03  8.179E-01  1.200E+01  2.400E-01 -7.670E-03
   1   14    9     7     1    1.5000E+02  1.3745E+00   1.4863E+02  0.000E+00  0.000E+00  0.000E+00  1.03987E+03  2.288E+00  5.529E+01  5.593E-01  8.192E-01
   1   13    8     7     2    1.4863E+02  1.9435E+00   1.4668E+02  0.000E+00  0.000E+00  0.000E+00  1.03478E+03  2.279E+00  5.525E+01  6.147E-01  1.054E+00
   1   13    7     7     3    1.4668E+02  1.6409E+00   1.4504E+02  0.000E+00  0.000E+00  0.000E+00  1.02969E+03  2.269E+00  5.521E+01  5.584E-01  9.795E-01
   1   13    6     8     1    1.5786E+02  1.0223E+00   1.5684E+02  0.000E+00  0.000E+00  0.000E+00  1.02474E+03  2.868E+00  4.158E+01  4.238E-01  8.041E-01
   1   13    5     8     2    1.5684E+02  2.7881E-01   1.5656E+02  0.000E+00  0.000E+00  0.000E+00  1.01849E+03  2.863E+00  4.152E+01  4.231E-01  2.197E-01
   1   13    4     8     3    1.5656E+02 -2.0689E+00   1.5863E+02  0.000E+00  0.000E+00  0.000E+00  1.01224E+03  2.870E+00  4.161E+01  4.240E+00 -1.626E-01
   1   13    3     8     4    1.5863E+02 -3.4641E+00   1.6209E+02  0.000E+00  0.000E+00  0.000E+00  1.00601E+03  2.888E+00  4.188E+01  4.268E+00 -2.706E-01
   1   13    2     8     5    1.6209E+02 -2.5306E+00   1.6463E+02  0.000E+00  0.000E+00  0.000E+00  9.99783E+02  2.908E+00  4.217E+01  4.297E+00 -1.963E-01
   1   13    1     8     6    1.6463E+02 -1.9644E+00   1.6659E+02  0.000E+00  0.000E+00  0.000E+00  9.94798E+02  2.923E+00  4.239E+01  2.592E+00 -2.526E-01
   1    8    6     9     1    0.0000E+00  0.0000E+00   0.0000E+00  0.000E+00  0.000E+00  0.000E+00  1.07875E+03  0.000E+00  4.000E+00  0.000E+00  1.000E+00
   1    8    5     9     2    0.0000E+00  0.0000E+00   0.0000E+00  0.000E+00  0.000E+00  0.000E+00  1.07825E+03  0.000E+00  4.000E+00  0.000E+00  1.000E+00





UNSATURATED ZONE PACKAGE VOLUMETRIC BUDGET FOR  TIME STEP    30 STRESS PERIOD   24
  ------------------------------------------------------------------------------



     CUMULATIVE VOLUMES      L**3       RATES FOR THIS TIME STEP      L**3/T
     ------------------                 ------------------------

           IN:                                      IN:
           ---                                      ---
        INFILTRATION =   862085864.0424          INFILTRATION =           0.8475

          OUT:                                     OUT:
          ----                                     ----
              UZF ET =   858078571.6066                UZF ET =           0.7500
        UZF RECHARGE =       73224.0000          UZF RECHARGE =       0.0000E+00

            IN - OUT =     3934068.4358              IN - OUT =       9.7500E-02

          STORAGE:                                 STORAGE:
          --------                                 --------
      STORAGE CHANGE =     3934067.0577        STORAGE CHANGE =       9.7500E-02

 PERCENT DISCREPANCY IS DIFFERENCE BETWEEN IN-OUT MINUS CHANGE IN STORAGE
 DIVIDED BY THE AVERAGE OF IN AND OUT TIMES 100

 PERCENT DISCREPANCY =           0.00     PERCENT DISCREPANCY =           0.00






1
  VOLUMETRIC BUDGET FOR AGRICULTURAL FIELDS AT  END OF TIME STEP   30, STRESS PERIOD  24
  ------------------------------------------------------------------------------

     CUMULATIVE VOLUMES      L**3       RATES FOR THIS TIME STEP      L**3/T
     ------------------                 ------------------------

           IN:                                      IN:
           ---                                      ---
           AG WELLS      =   428269280.0000             AG WELLS      =           0.0000
      DIVERSION SEGMENTS =   382511616.0000        DIVERSION SEGMENTS =           0.0000
           GW IRRIGATION =           0.0000             GW IRRIGATION =           0.0000
           SW IRRIGATION =           0.0000             SW IRRIGATION =           0.0000
        SYSTEM LOSSES GW =           0.0000          SYSTEM LOSSES GW =           0.0000
        SYSTEM LOSSES SW =           0.0000          SYSTEM LOSSES SW =           0.0000

                TOTAL IN =   810780928.0000                  TOTAL IN =           0.0000

          OUT:                                     OUT:
          ----                                     ----
           AG WELLS      =           0.0000             AG WELLS      =           0.0000
      DIVERSION SEGMENTS =           0.0000        DIVERSION SEGMENTS =           0.0000
           GW IRRIGATION =   428269280.0000             GW IRRIGATION =           0.0000
           SW IRRIGATION =   382519104.0000             SW IRRIGATION =           0.0000
        SYSTEM LOSSES GW =           0.0000          SYSTEM LOSSES GW =           0.0000
        SYSTEM LOSSES SW =           0.0000          SYSTEM LOSSES SW =           0.0000

               TOTAL OUT =   810788352.0000                 TOTAL OUT =           0.0000

                IN - OUT =       -7424.0000                  IN - OUT =           0.0000

     PERCENT DISCREPANCY =          -0.00         PERCENT DISCREPANCY =           0.00



1
  VOLUMETRIC BUDGET FOR ENTIRE MODEL AT END OF TIME STEP   30, STRESS PERIOD  24
  ------------------------------------------------------------------------------

     CUMULATIVE VOLUMES      L**3       RATES FOR THIS TIME STEP      L**3/T
     ------------------                 ------------------------

           IN:                                      IN:
           ---                                      ---
             STORAGE     =   597174528.0000               STORAGE     =           6.2274
       CONSTANT HEAD     =           0.0000         CONSTANT HEAD     =           0.0000
     HEAD DEP BOUNDS     =    17449750.0000       HEAD DEP BOUNDS     =           0.2884
      STREAM LEAKAGE     =   708807552.0000        STREAM LEAKAGE     =          11.3187
        UZF RECHARGE     =       73223.9531          UZF RECHARGE     =           0.0000
               GW ET     =           0.0000                 GW ET     =           0.0000
     SURFACE LEAKAGE     =           0.0000       SURFACE LEAKAGE     =           0.0000
           AG WELLS      =           0.0000             AG WELLS      =           0.0000

                TOTAL IN =  1323505024.0000                  TOTAL IN =          17.8345

          OUT:                                     OUT:
          ----                                     ----
             STORAGE     =   256354864.0000               STORAGE     =           7.5139
       CONSTANT HEAD     =           0.0000         CONSTANT HEAD     =           0.0000
     HEAD DEP BOUNDS     =    17437978.0000       HEAD DEP BOUNDS     =           0.2871
      STREAM LEAKAGE     =   621449152.0000        STREAM LEAKAGE     =          10.0335
        UZF RECHARGE     =           0.0000          UZF RECHARGE     =           0.0000
               GW ET     =           0.0000                 GW ET     =           0.0000
     SURFACE LEAKAGE     =           0.0000       SURFACE LEAKAGE     =           0.0000
           AG WELLS      =   428269280.0000             AG WELLS      =           0.0000

               TOTAL OUT =  1323511296.0000                 TOTAL OUT =          17.8345

                IN - OUT =       -6272.0000                  IN - OUT =       9.5367E-06

     PERCENT DISCREPANCY =          -0.00         PERCENT DISCREPANCY =           0.00






         TIME SUMMARY AT END OF TIME STEP   30 IN STRESS PERIOD   24
                    SECONDS     MINUTES      HOURS       DAYS        YEARS
                    -----------------------------------------------------------
   TIME STEP LENGTH  87667.      1461.1      24.352      1.0147     2.77799E-03
 STRESS PERIOD TIME 2.63000E+06  43833.      730.56      30.440     8.33397E-02
         TOTAL TIME 6.05767E+07 1.00961E+06  16827.      701.12      1.9196    
1
1
                            STRESS PERIOD NO.   25, LENGTH =   2630000.    
                            -----------------------------------------------

                              NUMBER OF TIME STEPS =    30

                               MULTIPLIER FOR DELT =     1.000

                            INITIAL TIME STEP SIZE =   87666.66    

 REUSING NON-PARAMETER GHB CELLS FROM LAST STRESS PERIOD

      2 GHB CELLS

 REUSING STREAM SEGMENT DATA FROM LAST STRESS PERIOD



            AREAL INFILTRATION RATE
 READING ON UNIT   19 WITH FORMAT: (FREE)              

            1           2           3           4           5           6           7           8           9          10
 ........................................................................................................................
   1   1.0000E-10  2.0000E-10   0.000       0.000       0.000       0.000       0.000       0.000       0.000       0.000    
   2   2.0000E-10  1.0000E-10  2.0000E-10   0.000       0.000      8.0000E-10  8.0000E-10  5.0000E-10   0.000       0.000    
   3    0.000      5.0000E-10  1.0000E-10  1.0000E-10  8.0000E-10  8.0000E-10  5.0000E-10  5.0000E-10   0.000       0.000    
   4   8.0000E-10  5.0000E-10  1.0000E-10  1.0000E-10  1.0000E-10  1.0000E-10  1.0000E-10  1.0000E-10  2.0000E-10   0.000    
   5   8.0000E-10  5.0000E-10  1.0000E-10  1.0000E-10  1.0000E-10  1.0000E-10  1.0000E-10  1.0000E-10  1.0000E-10  1.0000E-10
   6   8.0000E-10  5.0000E-10  5.0000E-10  2.0000E-10  2.0000E-10  1.0000E-10  1.0000E-10  1.0000E-10  1.0000E-10  5.0000E-10
   7   8.0000E-10  5.0000E-10  5.0000E-10  2.0000E-10  2.0000E-10  1.0000E-10  1.0000E-10  2.0000E-10  2.0000E-10   0.000    
   8    0.000      5.0000E-10  5.0000E-10  2.0000E-10  2.0000E-10  1.0000E-10  1.0000E-10  2.0000E-10  5.0000E-10   0.000    
   9    0.000      5.0000E-10  5.0000E-10  2.0000E-10  2.0000E-10  1.0000E-10  1.0000E-10  2.0000E-10  5.0000E-10   0.000    
  10    0.000      5.0000E-10  5.0000E-10  2.0000E-10  2.0000E-10  1.0000E-10  1.0000E-10  2.0000E-10  5.0000E-10  8.0000E-10
  11    0.000      1.0000E-10  1.0000E-10  1.0000E-10  1.0000E-10  1.0000E-10  1.0000E-10  2.0000E-10  5.0000E-10   0.000    
  12   1.0000E-10  1.0000E-10  1.0000E-10  1.0000E-10  1.0000E-10  1.0000E-10  1.0000E-10  1.0000E-10  2.0000E-10   0.000    
  13   1.0000E-10  1.0000E-10  2.0000E-10  2.0000E-10  2.0000E-10  2.0000E-10  2.0000E-10  1.0000E-10  1.0000E-10   0.000    
  14    0.000      2.0000E-10  5.0000E-10  5.0000E-10  5.0000E-10  5.0000E-10  5.0000E-10  2.0000E-10  1.0000E-10   0.000    
  15    0.000       0.000      8.0000E-10  8.0000E-10  8.0000E-10  8.0000E-10   0.000       0.000       0.000       0.000    

                  ET RATE =  5.000000E-10

 USING ET EXTINCTION DEPTH FROM PREVIOUS STRESS PERIOD. CURRENT PERIOD IS:      25

 USING EXTINCTION WATER CONTENT FROM PREVIOUS STRESS PERIOD. CURRENT PERIOD IS:      25

 USING AIR ENTRY PRESSURE FROM PREVIOUS STRESS PERIOD. CURRENT PERIOD IS:      25

 USING ROOT PRESSURE HEAD FROM PREVIOUS STRESS PERIOD. CURRENT PERIOD IS:      25

 USING ROOT ACTIVITY FROM PREVIOUS STRESS PERIOD. CURRENT PERIOD IS:      25

 PROCESSING AG STRESS PERIOD DATA

 READING AG STRESS PERIOD DATA

 READING IRRIGATION SEGMENT

 READING IRRIGATION WELL

 READING SUPPLEMENTAL WELL

 END PROCESSING AG STRESS PERIOD DATA OPTIONS
 
 SOLVING FOR HEAD 
                                                   Max.-Head-Change                         Max.-Flux-Residual
  Residual-Control   Outer-Iter.   Inner-Iter.     Column Row Layer    Maximum-Head-Change  Column Row Layer    Maximum-Flux-Residual          L2-NORM 
          0                 1           2             4    7     1       0.2238346741E-01       4    7    1         0.1178348828E+01      0.2506223634E+01
          0                 2           2             4    7     1      -0.2177311955E-02       4    7    1        -0.1178356212E+00      0.2506220730E+00
          0                 3           2             4    7     1       0.1482667651E-03       4    7    1         0.8248490049E-02      0.1754347346E-01
          0                 4           1             4    7     1      -0.5899673816E-05       4    7    1        -0.3373637405E-03      0.7175242554E-03

    ------------------------------------------------
       NWT REQUIRED            4 OUTER ITERATIONS 
       AND A TOTAL OF          7 INNER ITERATIONS.
    ------------------------------------------------

 NO OUTPUT CONTROL FOR STRESS PERIOD   25   TIME STEP    1
 
 SOLVING FOR HEAD 
                                                   Max.-Head-Change                         Max.-Flux-Residual
  Residual-Control   Outer-Iter.   Inner-Iter.     Column Row Layer    Maximum-Head-Change  Column Row Layer    Maximum-Flux-Residual          L2-NORM 
          0                 1           2             4    7     1       0.2209342106E-01       4    7    1         0.1163011337E+01      0.2479147067E+01
          0                 2           2             4    7     1      -0.2149098072E-02       4    7    1        -0.1163018531E+00      0.2479142238E+00
          0                 3           2             4    7     1       0.1463455072E-03       4    7    1         0.8141126416E-02      0.1735391667E-01
          0                 4           1             4    7     1      -0.5823225406E-05       4    7    1        -0.3329725753E-03      0.7097836433E-03

    ------------------------------------------------
       NWT REQUIRED            4 OUTER ITERATIONS 
       AND A TOTAL OF          7 INNER ITERATIONS.
    ------------------------------------------------

 NO OUTPUT CONTROL FOR STRESS PERIOD   25   TIME STEP    2
 
 SOLVING FOR HEAD 
                                                   Max.-Head-Change                         Max.-Flux-Residual
  Residual-Control   Outer-Iter.   Inner-Iter.     Column Row Layer    Maximum-Head-Change  Column Row Layer    Maximum-Flux-Residual          L2-NORM 
          0                 1           2             4    7     1       0.2180833406E-01       4    7    1         0.1147936168E+01      0.2452296505E+01
          0                 2           2             4    7     1      -0.2121366607E-02       4    7    1        -0.1147943176E+00      0.2452291880E+00
          0                 3           2             4    7     1       0.1444570998E-03       4    7    1         0.8035599077E-02      0.1716595457E-01
          0                 4           1             4    7     1      -0.5748083693E-05       4    7    1        -0.3286564800E-03      0.7020848756E-03

    ------------------------------------------------
       NWT REQUIRED            4 OUTER ITERATIONS 
       AND A TOTAL OF          7 INNER ITERATIONS.
    ------------------------------------------------

 NO OUTPUT CONTROL FOR STRESS PERIOD   25   TIME STEP    3
 
 SOLVING FOR HEAD 
                                                   Max.-Head-Change                         Max.-Flux-Residual
  Residual-Control   Outer-Iter.   Inner-Iter.     Column Row Layer    Maximum-Head-Change  Column Row Layer    Maximum-Flux-Residual          L2-NORM 
          0                 1           2             4    7     1       0.2152824429E-01       4    7    1         0.1133125452E+01      0.2425915736E+01
          0                 2           2             4    7     1      -0.2094121244E-02       4    7    1        -0.1133132281E+00      0.2425911377E+00
          0                 3           2             4    7     1       0.1426017944E-03       4    7    1         0.7931922932E-02      0.1698129113E-01
          0                 4           1             4    7     1      -0.5674259271E-05       4    7    1        -0.3244161330E-03      0.6945296933E-03

    ------------------------------------------------
       NWT REQUIRED            4 OUTER ITERATIONS 
       AND A TOTAL OF          7 INNER ITERATIONS.
    ------------------------------------------------

 NO OUTPUT CONTROL FOR STRESS PERIOD   25   TIME STEP    4
 
 SOLVING FOR HEAD 
                                                   Max.-Head-Change                         Max.-Flux-Residual
  Residual-Control   Outer-Iter.   Inner-Iter.     Column Row Layer    Maximum-Head-Change  Column Row Layer    Maximum-Flux-Residual          L2-NORM 
          0                 1           2             4    7     1       0.2125291672E-01       4    7    1         0.1118566515E+01      0.2399991296E+01
          0                 2           2             4    7     1      -0.2067339120E-02       4    7    1        -0.1118573168E+00      0.2399986905E+00
          0                 3           2             4    7     1       0.1407780336E-03       4    7    1         0.7830009270E-02      0.1679981996E-01
          0                 4           1             4    7     1      -0.5601690200E-05       4    7    1        -0.3202478536E-03      0.6871095143E-03

    ------------------------------------------------
       NWT REQUIRED            4 OUTER ITERATIONS 
       AND A TOTAL OF          7 INNER ITERATIONS.
    ------------------------------------------------

 NO OUTPUT CONTROL FOR STRESS PERIOD   25   TIME STEP    5
 
 SOLVING FOR HEAD 
                                                   Max.-Head-Change                         Max.-Flux-Residual
  Residual-Control   Outer-Iter.   Inner-Iter.     Column Row Layer    Maximum-Head-Change  Column Row Layer    Maximum-Flux-Residual          L2-NORM 
          0                 1           2             4    7     1       0.2098252679E-01       4    7    1         0.1104269131E+01      0.2374520012E+01
          0                 2           2             4    7     1      -0.2041037300E-02       4    7    1        -0.1104275614E+00      0.2374516290E+00
          0                 3           2             4    7     1       0.1389869794E-03       4    7    1         0.7729926499E-02      0.1662153936E-01
          0                 4           1             4    7     1      -0.5530422531E-05       4    7    1        -0.3161544573E-03      0.6798117814E-03

    ------------------------------------------------
       NWT REQUIRED            4 OUTER ITERATIONS 
       AND A TOTAL OF          7 INNER ITERATIONS.
    ------------------------------------------------

 NO OUTPUT CONTROL FOR STRESS PERIOD   25   TIME STEP    6
 
 SOLVING FOR HEAD 
                                                   Max.-Head-Change                         Max.-Flux-Residual
  Residual-Control   Outer-Iter.   Inner-Iter.     Column Row Layer    Maximum-Head-Change  Column Row Layer    Maximum-Flux-Residual          L2-NORM 
          0                 1           2             4    7     1       0.2071670165E-01       4    7    1         0.1090213113E+01      0.2349488498E+01
          0                 2           2             4    7     1      -0.2015179517E-02       4    7    1        -0.1090219430E+00      0.2349484637E+00
          0                 3           2             4    7     1       0.1372261624E-03       4    7    1         0.7631533313E-02      0.1644631698E-01
          0                 4           1             4    7     1      -0.5460357831E-05       4    7    1        -0.3121301716E-03      0.6726503126E-03

    ------------------------------------------------
       NWT REQUIRED            4 OUTER ITERATIONS 
       AND A TOTAL OF          7 INNER ITERATIONS.
    ------------------------------------------------

 NO OUTPUT CONTROL FOR STRESS PERIOD   25   TIME STEP    7
 
 SOLVING FOR HEAD 
                                                   Max.-Head-Change                         Max.-Flux-Residual
  Residual-Control   Outer-Iter.   Inner-Iter.     Column Row Layer    Maximum-Head-Change  Column Row Layer    Maximum-Flux-Residual          L2-NORM 
          0                 1           2             4    7     1       0.2045561774E-01       4    7    1         0.1076408416E+01      0.2324883671E+01
          0                 2           2             4    7     1      -0.1989782934E-02       4    7    1        -0.1076414572E+00      0.2324880077E+00
          0                 3           2             4    7     1       0.1354967521E-03       4    7    1         0.7534899438E-02      0.1627409658E-01
          0                 4           1             4    7     1      -0.5391543186E-05       4    7    1        -0.3081778468E-03      0.6656152617E-03

    ------------------------------------------------
       NWT REQUIRED            4 OUTER ITERATIONS 
       AND A TOTAL OF          7 INNER ITERATIONS.
    ------------------------------------------------

 NO OUTPUT CONTROL FOR STRESS PERIOD   25   TIME STEP    8
 
 SOLVING FOR HEAD 
                                                   Max.-Head-Change                         Max.-Flux-Residual
  Residual-Control   Outer-Iter.   Inner-Iter.     Column Row Layer    Maximum-Head-Change  Column Row Layer    Maximum-Flux-Residual          L2-NORM 
          0                 1           2             4    7     1       0.2019904091E-01       4    7    1         0.1062842222E+01      0.2300696040E+01
          0                 2           2             4    7     1      -0.1964824773E-02       4    7    1        -0.1062848221E+00      0.2300692351E+00
          0                 3           2             4    7     1       0.1337971959E-03       4    7    1         0.7439935082E-02      0.1610478200E-01
          0                 4           1             4    7     1      -0.5323915967E-05       4    7    1        -0.3042937863E-03      0.6586767251E-03

    ------------------------------------------------
       NWT REQUIRED            4 OUTER ITERATIONS 
       AND A TOTAL OF          7 INNER ITERATIONS.
    ------------------------------------------------

 NO OUTPUT CONTROL FOR STRESS PERIOD   25   TIME STEP    9
 
 SOLVING FOR HEAD 
                                                   Max.-Head-Change                         Max.-Flux-Residual
  Residual-Control   Outer-Iter.   Inner-Iter.     Column Row Layer    Maximum-Head-Change  Column Row Layer    Maximum-Flux-Residual          L2-NORM 
          0                 1           2             4    7     1       0.1994674256E-01       4    7    1         0.1049502390E+01      0.2276914444E+01
          0                 2           2             4    7     1      -0.1940282797E-02       4    7    1        -0.1049508237E+00      0.2276910931E+00
          0                 3           2             4    7     1       0.1321259810E-03       4    7    1         0.7346555305E-02      0.1593831869E-01
          0                 4           1             4    7     1      -0.5257416883E-05       4    7    1        -0.3004745663E-03      0.6518767491E-03

    ------------------------------------------------
       NWT REQUIRED            4 OUTER ITERATIONS 
       AND A TOTAL OF          7 INNER ITERATIONS.
    ------------------------------------------------

 NO OUTPUT CONTROL FOR STRESS PERIOD   25   TIME STEP   10
 
 SOLVING FOR HEAD 
                                                   Max.-Head-Change                         Max.-Flux-Residual
  Residual-Control   Outer-Iter.   Inner-Iter.     Column Row Layer    Maximum-Head-Change  Column Row Layer    Maximum-Flux-Residual          L2-NORM 
          0                 1           2             4    7     1       0.1969904050E-01       4    7    1         0.1036406358E+01      0.2253538235E+01
          0                 2           2             4    7     1      -0.1916187987E-02       4    7    1        -0.1036412057E+00      0.2253614220E+00
          0                 3           2             4    7     1       0.1304852156E-03       4    7    1         0.7254882138E-02      0.1577528639E-01
          0                 4           1             4    7     1      -0.5192128942E-05       4    7    1        -0.2967251162E-03      0.6457105610E-03

    ------------------------------------------------
       NWT REQUIRED            4 OUTER ITERATIONS 
       AND A TOTAL OF          7 INNER ITERATIONS.
    ------------------------------------------------

 NO OUTPUT CONTROL FOR STRESS PERIOD   25   TIME STEP   11
 
 SOLVING FOR HEAD 
                                                   Max.-Head-Change                         Max.-Flux-Residual
  Residual-Control   Outer-Iter.   Inner-Iter.     Column Row Layer    Maximum-Head-Change  Column Row Layer    Maximum-Flux-Residual          L2-NORM 
          0                 1           2             4    7     1       0.1945542777E-01       4    7    1         0.1023526665E+01      0.2230540063E+01
          0                 2           2             4    7     1      -0.1892490833E-02       4    7    1        -0.1023532220E+00      0.2230536584E+00
          0                 3           2             4    7     1       0.1288715295E-03       4    7    1         0.7164723379E-02      0.1561368110E-01
          0                 4           1             4    7     1      -0.5127919401E-05       4    7    1        -0.2930376322E-03      0.6385977594E-03

    ------------------------------------------------
       NWT REQUIRED            4 OUTER ITERATIONS 
       AND A TOTAL OF          7 INNER ITERATIONS.
    ------------------------------------------------

 NO OUTPUT CONTROL FOR STRESS PERIOD   25   TIME STEP   12
 
 SOLVING FOR HEAD 
                                                   Max.-Head-Change                         Max.-Flux-Residual
  Residual-Control   Outer-Iter.   Inner-Iter.     Column Row Layer    Maximum-Head-Change  Column Row Layer    Maximum-Flux-Residual          L2-NORM 
          0                 1           2             4    7     1       0.1921609255E-01       4    7    1         0.1010873651E+01      0.2207893774E+01
          0                 2           2             4    7     1      -0.1869209836E-02       4    7    1        -0.1010879065E+00      0.2207890314E+00
          0                 3           1             4    7     1       0.1272861846E-03       4    7    1         0.7076151401E-02      0.1545517075E-01
          0                 4           1             4    7     1      -0.5064839492E-05       4    7    1        -0.2894150291E-03      0.6321186174E-03

    ------------------------------------------------
       NWT REQUIRED            4 OUTER ITERATIONS 
       AND A TOTAL OF          6 INNER ITERATIONS.
    ------------------------------------------------

 NO OUTPUT CONTROL FOR STRESS PERIOD   25   TIME STEP   13
 
 SOLVING FOR HEAD 
                                                   Max.-Head-Change                         Max.-Flux-Residual
  Residual-Control   Outer-Iter.   Inner-Iter.     Column Row Layer    Maximum-Head-Change  Column Row Layer    Maximum-Flux-Residual          L2-NORM 
          0                 1           2             4    7     1       0.1898080476E-01       4    7    1         0.9984350917E+00      0.2185612436E+01
          0                 2           2             4    7     1      -0.1846322548E-02       4    7    1        -0.9984403699E-01      0.2185609001E+00
          0                 3           1             4    7     1       0.1257276469E-03       4    7    1         0.6989080616E-02      0.1529920421E-01
          0                 4           1             4    7     1      -0.5002823708E-05       4    7    1        -0.2858538230E-03      0.6257376289E-03

    ------------------------------------------------
       NWT REQUIRED            4 OUTER ITERATIONS 
       AND A TOTAL OF          6 INNER ITERATIONS.
    ------------------------------------------------

 NO OUTPUT CONTROL FOR STRESS PERIOD   25   TIME STEP   14
 
 SOLVING FOR HEAD 
                                                   Max.-Head-Change                         Max.-Flux-Residual
  Residual-Control   Outer-Iter.   Inner-Iter.     Column Row Layer    Maximum-Head-Change  Column Row Layer    Maximum-Flux-Residual          L2-NORM 
          0                 1           2             4    7     1       0.1874961380E-01       4    7    1         0.9862137087E+00      0.2163700066E+01
          0                 2           2             4    7     1      -0.1823833775E-02       4    7    1        -0.9862188544E-01      0.2163696654E+00
          0                 3           1             4    7     1       0.1241962467E-03       4    7    1         0.6903530089E-02      0.1514580969E-01
          0                 4           1             4    7     1      -0.4941887935E-05       4    7    1        -0.2823548020E-03      0.6194707988E-03

    ------------------------------------------------
       NWT REQUIRED            4 OUTER ITERATIONS 
       AND A TOTAL OF          6 INNER ITERATIONS.
    ------------------------------------------------

 NO OUTPUT CONTROL FOR STRESS PERIOD   25   TIME STEP   15
 
 SOLVING FOR HEAD 
                                                   Max.-Head-Change                         Max.-Flux-Residual
  Residual-Control   Outer-Iter.   Inner-Iter.     Column Row Layer    Maximum-Head-Change  Column Row Layer    Maximum-Flux-Residual          L2-NORM 
          0                 1           2             4    7     1       0.1852229642E-01       4    7    1         0.9741974163E+00      0.2142147981E+01
          0                 2           2             4    7     1      -0.1801721802E-02       4    7    1        -0.9742024331E-01      0.2142144639E+00
          0                 3           1             4    7     1       0.1226905049E-03       4    7    1         0.6819415218E-02      0.1499496227E-01
          0                 4           1             4    7     1      -0.4881972884E-05       4    7    1        -0.2789144878E-03      0.6132911941E-03

    ------------------------------------------------
       NWT REQUIRED            4 OUTER ITERATIONS 
       AND A TOTAL OF          6 INNER ITERATIONS.
    ------------------------------------------------

 NO OUTPUT CONTROL FOR STRESS PERIOD   25   TIME STEP   16
 
 SOLVING FOR HEAD 
                                                   Max.-Head-Change                         Max.-Flux-Residual
  Residual-Control   Outer-Iter.   Inner-Iter.     Column Row Layer    Maximum-Head-Change  Column Row Layer    Maximum-Flux-Residual          L2-NORM 
          0                 1           2             4    7     1       0.1829890507E-01       4    7    1         0.9623892878E+00      0.2120935972E+01
          0                 2           2             4    7     1      -0.1779991731E-02       4    7    1        -0.9623941796E-01      0.2120932419E+00
          0                 3           1             4    7     1       0.1212107695E-03       4    7    1         0.6736757543E-02      0.1484645089E-01
          0                 4           1             4    7     1      -0.4823092485E-05       4    7    1        -0.2755337719E-03      0.6072156447E-03

    ------------------------------------------------
       NWT REQUIRED            4 OUTER ITERATIONS 
       AND A TOTAL OF          6 INNER ITERATIONS.
    ------------------------------------------------

 NO OUTPUT CONTROL FOR STRESS PERIOD   25   TIME STEP   17
 
 SOLVING FOR HEAD 
                                                   Max.-Head-Change                         Max.-Flux-Residual
  Residual-Control   Outer-Iter.   Inner-Iter.     Column Row Layer    Maximum-Head-Change  Column Row Layer    Maximum-Flux-Residual          L2-NORM 
          0                 1           2             4    7     1       0.1807922015E-01       4    7    1         0.9507773927E+00      0.2100071035E+01
          0                 2           2             4    7     1      -0.1758622198E-02       4    7    1        -0.9507821627E-01      0.2100067526E+00
          0                 3           1             4    7     1       0.1197555854E-03       4    7    1         0.6655473498E-02      0.1470041297E-01
          0                 4           1             4    7     1      -0.4765189634E-05       4    7    1        -0.2722092643E-03      0.6012537777E-03

    ------------------------------------------------
       NWT REQUIRED            4 OUTER ITERATIONS 
       AND A TOTAL OF          6 INNER ITERATIONS.
    ------------------------------------------------

 NO OUTPUT CONTROL FOR STRESS PERIOD   25   TIME STEP   18
 
 SOLVING FOR HEAD 
                                                   Max.-Head-Change                         Max.-Flux-Residual
  Residual-Control   Outer-Iter.   Inner-Iter.     Column Row Layer    Maximum-Head-Change  Column Row Layer    Maximum-Flux-Residual          L2-NORM 
          0                 1           2             4    7     1       0.1786343311E-01       4    7    1         0.9393723202E+00      0.2079543202E+01
          0                 2           2             4    7     1      -0.1737631828E-02       4    7    1        -0.9393769718E-01      0.2079539828E+00
          0                 3           1             4    7     1       0.1183262209E-03       4    7    1         0.6575637241E-02      0.1455672117E-01
          0                 4           1             4    7     1      -0.4708313951E-05       4    7    1        -0.2689439621E-03      0.5953620618E-03

    ------------------------------------------------
       NWT REQUIRED            4 OUTER ITERATIONS 
       AND A TOTAL OF          6 INNER ITERATIONS.
    ------------------------------------------------

 NO OUTPUT CONTROL FOR STRESS PERIOD   25   TIME STEP   19
 
 SOLVING FOR HEAD 
                                                   Max.-Head-Change                         Max.-Flux-Residual
  Residual-Control   Outer-Iter.   Inner-Iter.     Column Row Layer    Maximum-Head-Change  Column Row Layer    Maximum-Flux-Residual          L2-NORM 
          0                 1           2             4    7     1       0.1765118651E-01       4    7    1         0.9281546970E+00      0.2059345997E+01
          0                 2           2             4    7     1      -0.1716985851E-02       4    7    1        -0.9281592335E-01      0.2059342487E+00
          0                 3           1             4    7     1       0.1169203081E-03       4    7    1         0.6497113151E-02      0.1441533871E-01
          0                 4           1             4    7     1      -0.4652371378E-05       4    7    1        -0.2657323221E-03      0.5895887076E-03

    ------------------------------------------------
       NWT REQUIRED            4 OUTER ITERATIONS 
       AND A TOTAL OF          6 INNER ITERATIONS.
    ------------------------------------------------

 NO OUTPUT CONTROL FOR STRESS PERIOD   25   TIME STEP   20
 
 SOLVING FOR HEAD 
                                                   Max.-Head-Change                         Max.-Flux-Residual
  Residual-Control   Outer-Iter.   Inner-Iter.     Column Row Layer    Maximum-Head-Change  Column Row Layer    Maximum-Flux-Residual          L2-NORM 
          0                 1           2             4    7     1       0.1744253877E-01       4    7    1         0.9171279657E+00      0.2039459167E+01
          0                 2           2             4    7     1      -0.1696689950E-02       4    7    1        -0.9171323903E-01      0.2039455517E+00
          0                 3           1             4    7     1       0.1155382341E-03       4    7    1         0.6419925321E-02      0.1427612949E-01
          0                 4           1             4    7     1      -0.4597377226E-05       4    7    1        -0.2625753280E-03      0.5838900425E-03

    ------------------------------------------------
       NWT REQUIRED            4 OUTER ITERATIONS 
       AND A TOTAL OF          6 INNER ITERATIONS.
    ------------------------------------------------

 NO OUTPUT CONTROL FOR STRESS PERIOD   25   TIME STEP   21
 
 SOLVING FOR HEAD 
                                                   Max.-Head-Change                         Max.-Flux-Residual
  Residual-Control   Outer-Iter.   Inner-Iter.     Column Row Layer    Maximum-Head-Change  Column Row Layer    Maximum-Flux-Residual          L2-NORM 
          0                 1           2             4    7     1       0.1723727923E-01       4    7    1         0.9062805039E+00      0.2019889907E+01
          0                 2           2             4    7     1      -0.1676723633E-02       4    7    1        -0.9062848196E-01      0.2019886243E+00
          0                 3           1             4    7     1       0.1141786035E-03       4    7    1         0.6343992405E-02      0.1413914313E-01
          0                 4           1             4    7     1      -0.4543276349E-05       4    7    1        -0.2594696705E-03      0.5782921308E-03

    ------------------------------------------------
       NWT REQUIRED            4 OUTER ITERATIONS 
       AND A TOTAL OF          6 INNER ITERATIONS.
    ------------------------------------------------

 NO OUTPUT CONTROL FOR STRESS PERIOD   25   TIME STEP   22
 
 SOLVING FOR HEAD 
                                                   Max.-Head-Change                         Max.-Flux-Residual
  Residual-Control   Outer-Iter.   Inner-Iter.     Column Row Layer    Maximum-Head-Change  Column Row Layer    Maximum-Flux-Residual          L2-NORM 
          0                 1           2             4    7     1       0.1703560426E-01       4    7    1         0.8956233669E+00      0.2000627165E+01
          0                 2           2             4    7     1      -0.1657106000E-02       4    7    1        -0.8956275770E-01      0.2000623388E+00
          0                 3           1             4    7     1       0.1128427172E-03       4    7    1         0.6269391774E-02      0.1400430042E-01
          0                 4           1             4    7     1      -0.4490120209E-05       4    7    1        -0.2564185033E-03      0.5727876964E-03

    ------------------------------------------------
       NWT REQUIRED            4 OUTER ITERATIONS 
       AND A TOTAL OF          6 INNER ITERATIONS.
    ------------------------------------------------

 NO OUTPUT CONTROL FOR STRESS PERIOD   25   TIME STEP   23
 
 SOLVING FOR HEAD 
                                                   Max.-Head-Change                         Max.-Flux-Residual
  Residual-Control   Outer-Iter.   Inner-Iter.     Column Row Layer    Maximum-Head-Change  Column Row Layer    Maximum-Flux-Residual          L2-NORM 
          0                 1           2             4    7     1       0.1683729964E-01       4    7    1         0.8851447585E+00      0.1981666915E+01
          0                 2           2             4    7     1      -0.1637816217E-02       4    7    1        -0.8851488658E-01      0.1981663175E+00
          0                 3           1             4    7     1       0.1115291556E-03       4    7    1         0.6196040847E-02      0.1387158222E-01
          0                 4           1             4    7     1      -0.4437852393E-05       4    7    1        -0.2534184430E-03      0.5673447251E-03

    ------------------------------------------------
       NWT REQUIRED            4 OUTER ITERATIONS 
       AND A TOTAL OF          6 INNER ITERATIONS.
    ------------------------------------------------

 NO OUTPUT CONTROL FOR STRESS PERIOD   25   TIME STEP   24
 
 SOLVING FOR HEAD 
                                                   Max.-Head-Change                         Max.-Flux-Residual
  Residual-Control   Outer-Iter.   Inner-Iter.     Column Row Layer    Maximum-Head-Change  Column Row Layer    Maximum-Flux-Residual          L2-NORM 
          0                 1           2             4    7     1       0.1664229292E-01       4    7    1         0.8748408984E+00      0.1963006360E+01
          0                 2           2             4    7     1      -0.1618847232E-02       4    7    1        -0.8748449056E-01      0.1963002425E+00
          0                 3           1             4    7     1       0.1102374395E-03       4    7    1         0.6123913191E-02      0.1374094539E-01
          0                 4           1             4    7     1      -0.4386453676E-05       4    7    1        -0.2504684162E-03      0.5619939198E-03

    ------------------------------------------------
       NWT REQUIRED            4 OUTER ITERATIONS 
       AND A TOTAL OF          6 INNER ITERATIONS.
    ------------------------------------------------

 NO OUTPUT CONTROL FOR STRESS PERIOD   25   TIME STEP   25
 
 SOLVING FOR HEAD 
                                                   Max.-Head-Change                         Max.-Flux-Residual
  Residual-Control   Outer-Iter.   Inner-Iter.     Column Row Layer    Maximum-Head-Change  Column Row Layer    Maximum-Flux-Residual          L2-NORM 
          0                 1           2             4    7     1       0.1645051299E-01       4    7    1         0.8647080291E+00      0.1944627474E+01
          0                 2           2             4    7     1      -0.1600192129E-02       4    7    1        -0.8647119387E-01      0.1944623568E+00
          0                 3           1             4    7     1       0.1089670975E-03       4    7    1         0.6052982476E-02      0.1361231989E-01
          0                 4           1             4    7     1      -0.4335905522E-05       4    7    1        -0.2475673512E-03      0.5567511349E-03

    ------------------------------------------------
       NWT REQUIRED            4 OUTER ITERATIONS 
       AND A TOTAL OF          6 INNER ITERATIONS.
    ------------------------------------------------

 NO OUTPUT CONTROL FOR STRESS PERIOD   25   TIME STEP   26
 
 SOLVING FOR HEAD 
                                                   Max.-Head-Change                         Max.-Flux-Residual
  Residual-Control   Outer-Iter.   Inner-Iter.     Column Row Layer    Maximum-Head-Change  Column Row Layer    Maximum-Flux-Residual          L2-NORM 
          0                 1           2             4    7     1       0.1626188893E-01       4    7    1         0.8547424639E+00      0.1926533171E+01
          0                 2           2             4    7     1      -0.1581844012E-02       4    7    1        -0.8547462788E-01      0.1926529214E+00
          0                 3           1             4    7     1       0.1077176603E-03       4    7    1         0.5983222933E-02      0.1348564527E-01
          0                 4           1             4    7     1      -0.4286189279E-05       4    7    1        -0.2447141771E-03      0.5515622720E-03

    ------------------------------------------------
       NWT REQUIRED            4 OUTER ITERATIONS 
       AND A TOTAL OF          6 INNER ITERATIONS.
    ------------------------------------------------

 NO OUTPUT CONTROL FOR STRESS PERIOD   25   TIME STEP   27
 
 SOLVING FOR HEAD 
                                                   Max.-Head-Change                         Max.-Flux-Residual
  Residual-Control   Outer-Iter.   Inner-Iter.     Column Row Layer    Maximum-Head-Change  Column Row Layer    Maximum-Flux-Residual          L2-NORM 
          0                 1           2             4    7     1       0.1607635264E-01       4    7    1         0.8449405261E+00      0.1908711570E+01
          0                 2           2             4    7     1      -0.1563796254E-02       4    7    1        -0.8449442488E-01      0.1908707491E+00
          0                 3           1             4    7     1       0.1064886761E-03       4    7    1         0.5914608771E-02      0.1336088851E-01
          0                 4           1             4    7     1      -0.4237286874E-05       4    7    1        -0.2419078601E-03      0.5464529932E-03

    ------------------------------------------------
       NWT REQUIRED            4 OUTER ITERATIONS 
       AND A TOTAL OF          6 INNER ITERATIONS.
    ------------------------------------------------

 NO OUTPUT CONTROL FOR STRESS PERIOD   25   TIME STEP   28
 
 SOLVING FOR HEAD 
                                                   Max.-Head-Change                         Max.-Flux-Residual
  Residual-Control   Outer-Iter.   Inner-Iter.     Column Row Layer    Maximum-Head-Change  Column Row Layer    Maximum-Flux-Residual          L2-NORM 
          0                 1           2             4    7     1       0.1589383883E-01       4    7    1         0.8352986847E+00      0.1891164759E+01
          0                 2           2             4    7     1      -0.1546042505E-02       4    7    1        -0.8353023181E-01      0.1891160531E+00
          0                 3           1             4    7     1       0.1052797126E-03       4    7    1         0.5847115307E-02      0.1323806781E-01
          0                 4           1             4    7     1      -0.4189180921E-05       4    7    1        -0.2391473615E-03      0.5414429656E-03

    ------------------------------------------------
       NWT REQUIRED            4 OUTER ITERATIONS 
       AND A TOTAL OF          6 INNER ITERATIONS.
    ------------------------------------------------

 NO OUTPUT CONTROL FOR STRESS PERIOD   25   TIME STEP   29
 
 SOLVING FOR HEAD 
                                                   Max.-Head-Change                         Max.-Flux-Residual
  Residual-Control   Outer-Iter.   Inner-Iter.     Column Row Layer    Maximum-Head-Change  Column Row Layer    Maximum-Flux-Residual          L2-NORM 
          0                 1           2             4    7     1       0.1571441466E-01       4    7    1         0.8258208825E+00      0.1873950114E+01
          0                 2           2             4    7     1      -0.1528589296E-02       4    7    1        -0.8258244286E-01      0.1873945288E+00
          0                 3           1             4    7     1       0.1040912150E-03       4    7    1         0.5780770134E-02      0.1311755442E-01
          0                 4           1             4    7     1      -0.4141889381E-05       4    7    1        -0.2364338341E-03      0.5365273589E-03

    ------------------------------------------------
       NWT REQUIRED            4 OUTER ITERATIONS 
       AND A TOTAL OF          6 INNER ITERATIONS.
    ------------------------------------------------

 NO OUTPUT CONTROL FOR STRESS PERIOD   25   TIME STEP   30



 STREAM LISTING     PERIOD     25   STEP       30

 LAYER ROW COL. STREAM  RCH.  FLOW INTO     FLOW TO   FLOW OUT OF   OVRLND.     DIRECT     STREAM       STREAM     STREAM     STREAM   STREAMBED  STREAMBED
                SEG.NO.  NO.  STRM. RCH.    AQUIFER    STRM. RCH.    RUNOFF     PRECIP       ET          HEAD       DEPTH      WIDTH   CONDCTNC.   GRADIENT

   1    1    1     1     1    7.4712E+00  1.2395E-01   7.3473E+00  0.000E+00  0.000E+00  0.000E+00  1.09386E+03  8.152E-01  7.220E+00  3.249E-02  1.272E+00
   1    2    2     1     2    7.3473E+00  1.9029E-01   7.1570E+00  0.000E+00  0.000E+00  0.000E+00  1.08887E+03  8.094E-01  7.136E+00  4.995E-02  1.270E+00
   1    3    3     1     3    7.1570E+00  1.6067E-01   6.9963E+00  0.000E+00  0.000E+00  0.000E+00  1.08322E+03  8.029E-01  7.042E+00  4.225E-02  1.268E+00
   1    3    4     1     4    6.9963E+00  1.4674E-01   6.8496E+00  0.000E+00  0.000E+00  0.000E+00  1.07821E+03  7.979E-01  6.962E+00  3.864E-02  1.266E+00
   1    4    5     2     1    4.8496E+00  2.6862E-01   4.5810E+00  0.000E+00  0.000E+00  0.000E+00  1.07238E+03  4.439E-01  1.200E+01  7.800E-02  1.148E+00
   1    5    6     2     2    4.5810E+00  2.0582E-01   4.3752E+00  0.000E+00  0.000E+00  0.000E+00  1.06694E+03  4.303E-01  1.200E+01  6.000E-02  1.143E+00
   1    6    6     2     3    4.3752E+00  2.0510E-01   4.1701E+00  0.000E+00  0.000E+00  0.000E+00  1.06221E+03  4.184E-01  1.200E+01  6.000E-02  1.139E+00
   1    7    6     2     4    4.1701E+00  2.0437E-01   3.9657E+00  0.000E+00  0.000E+00  0.000E+00  1.05748E+03  4.062E-01  1.200E+01  6.000E-02  1.135E+00
   1    8    6     2     5    3.9657E+00  2.0363E-01   3.7620E+00  0.000E+00  0.000E+00  0.000E+00  1.05275E+03  3.939E-01  1.200E+01  6.000E-02  1.131E+00
   1    3    5     3     1    2.0000E+00  2.8252E-01   1.7175E+00  0.000E+00  0.000E+00  0.000E+00  1.07555E+03  1.909E+00  9.636E+00  7.227E-02  1.955E+00
   1    3    6     3     2    1.7175E+00  2.4905E-01   1.4684E+00  0.000E+00  0.000E+00  0.000E+00  1.07264E+03  1.727E+00  8.909E+00  6.682E-02  1.864E+00
   1    3    7     3     3    1.4684E+00  1.9718E-01   1.2712E+00  0.000E+00  0.000E+00  0.000E+00  1.06987E+03  1.555E+00  8.218E+00  5.547E-02  1.777E+00
   1    4    8     3     4    1.2712E+00  2.2567E-01   1.0456E+00  0.000E+00  0.000E+00  0.000E+00  1.06682E+03  1.364E+00  7.455E+00  6.709E-02  1.682E+00
   1    5    8     3     5    1.0456E+00  1.5790E-01   8.8768E-01  0.000E+00  0.000E+00  0.000E+00  1.06362E+03  1.164E+00  6.655E+00  4.991E-02  1.582E+00
   1    6    8     3     6    8.8768E-01  5.5980E-02   8.3170E-01  0.000E+00  0.000E+00  0.000E+00  1.06158E+03  1.036E+00  6.145E+00  1.844E-02  1.518E+00
   1    5   10     4     1    1.0000E+01  9.0919E-02   9.9091E+00  0.000E+00  0.000E+00  0.000E+00  1.07836E+03  6.368E-01  1.000E+01  2.500E-02  1.212E+00
   1    5    9     4     2    9.9091E+00  1.8158E-01   9.7275E+00  0.000E+00  0.000E+00  0.000E+00  1.07154E+03  6.315E-01  1.000E+01  5.000E-02  1.211E+00
   1    6    8     4     3    9.7275E+00  1.2689E-01   9.6006E+00  0.000E+00  0.000E+00  0.000E+00  1.06381E+03  6.256E-01  1.000E+01  3.500E-02  1.209E+00
   1    6    8     5     1    1.0432E+01  2.2686E-01   1.0205E+01  0.000E+00  0.000E+00  0.000E+00  1.05868E+03  6.790E-01  1.542E+01  6.166E-02  1.226E+00
   1    7    7     5     2    1.0205E+01  2.7894E-01   9.9265E+00  0.000E+00  0.000E+00  0.000E+00  1.05417E+03  6.732E-01  1.519E+01  7.594E-02  1.224E+00
   1    8    7     5     3    9.9265E+00  1.9221E-01   9.7343E+00  0.000E+00  0.000E+00  0.000E+00  1.04992E+03  6.676E-01  1.497E+01  5.241E-02  1.223E+00
   1    8    6     5     4    9.7343E+00  1.3577E-01   9.5985E+00  0.000E+00  0.000E+00  0.000E+00  1.04691E+03  6.637E-01  1.482E+01  3.706E-02  1.221E+00
   1    9    6     6     1    1.3361E+01  2.3005E-01   1.3131E+01  0.000E+00  0.000E+00  0.000E+00  1.04356E+03  8.341E-01  1.200E+01  6.000E-02  1.278E+00
   1   10    7     6     2    1.3131E+01  2.2952E-01   1.2901E+01  0.000E+00  0.000E+00  0.000E+00  1.03901E+03  8.254E-01  1.200E+01  6.000E-02  1.275E+00
   1   11    7     6     3    1.2901E+01  2.2900E-01   1.2672E+01  0.000E+00  0.000E+00  0.000E+00  1.03445E+03  8.166E-01  1.200E+01  6.000E-02  1.272E+00
   1   12    7     6     4    1.2672E+01  2.2847E-01   1.2444E+01  0.000E+00  0.000E+00  0.000E+00  1.02990E+03  8.078E-01  1.200E+01  6.000E-02  1.269E+00
   1   13    7     6     5    1.2444E+01 -6.3567E-03   1.2450E+01  0.000E+00  0.000E+00  0.000E+00  1.02671E+03  8.035E-01  1.200E+01  2.400E-01 -8.829E-03
   1   14    9     7     1    1.5000E+02  1.3752E+00   1.4862E+02  0.000E+00  0.000E+00  0.000E+00  1.03987E+03  2.288E+00  5.529E+01  5.593E-01  8.196E-01
   1   13    8     7     2    1.4862E+02  1.9457E+00   1.4668E+02  0.000E+00  0.000E+00  0.000E+00  1.03478E+03  2.279E+00  5.525E+01  6.147E-01  1.055E+00
   1   13    7     7     3    1.4668E+02  1.6469E+00   1.4503E+02  0.000E+00  0.000E+00  0.000E+00  1.02969E+03  2.269E+00  5.521E+01  5.584E-01  9.831E-01
   1   13    6     8     1    1.5748E+02  1.0276E+00   1.5645E+02  0.000E+00  0.000E+00  0.000E+00  1.02474E+03  2.865E+00  4.155E+01  4.234E-01  8.091E-01
   1   13    5     8     2    1.5645E+02  2.8546E-01   1.5617E+02  0.000E+00  0.000E+00  0.000E+00  1.01849E+03  2.861E+00  4.148E+01  4.227E-01  2.251E-01
   1   13    4     8     3    1.5617E+02 -2.0429E+00   1.5821E+02  0.000E+00  0.000E+00  0.000E+00  1.01224E+03  2.867E+00  4.157E+01  4.236E+00 -1.608E-01
   1   13    3     8     4    1.5821E+02 -3.4528E+00   1.6166E+02  0.000E+00  0.000E+00  0.000E+00  1.00601E+03  2.885E+00  4.184E+01  4.264E+00 -2.700E-01
   1   13    2     8     5    1.6166E+02 -2.5305E+00   1.6420E+02  0.000E+00  0.000E+00  0.000E+00  9.99781E+02  2.906E+00  4.213E+01  4.293E+00 -1.965E-01
   1   13    1     8     6    1.6420E+02 -1.9670E+00   1.6616E+02  0.000E+00  0.000E+00  0.000E+00  9.94796E+02  2.921E+00  4.235E+01  2.589E+00 -2.532E-01
   1    8    6     9     1    0.0000E+00  0.0000E+00   0.0000E+00  0.000E+00  0.000E+00  0.000E+00  1.07875E+03  0.000E+00  4.000E+00  0.000E+00  1.000E+00
   1    8    5     9     2    0.0000E+00  0.0000E+00   0.0000E+00  0.000E+00  0.000E+00  0.000E+00  1.07825E+03  0.000E+00  4.000E+00  0.000E+00  1.000E+00





UNSATURATED ZONE PACKAGE VOLUMETRIC BUDGET FOR  TIME STEP    30 STRESS PERIOD   25
  ------------------------------------------------------------------------------



     CUMULATIVE VOLUMES      L**3       RATES FOR THIS TIME STEP      L**3/T
     ------------------                 ------------------------

           IN:                                      IN:
           ---                                      ---
        INFILTRATION =   864314788.9151          INFILTRATION =           0.8475

          OUT:                                     OUT:
          ----                                     ----
              UZF ET =   860051071.4727                UZF ET =           0.7500
        UZF RECHARGE =       73224.0000          UZF RECHARGE =       0.0000E+00

            IN - OUT =     4190493.4424              IN - OUT =       9.7500E-02

          STORAGE:                                 STORAGE:
          --------                                 --------
      STORAGE CHANGE =     4190492.0828        STORAGE CHANGE =       9.7500E-02

 PERCENT DISCREPANCY IS DIFFERENCE BETWEEN IN-OUT MINUS CHANGE IN STORAGE
 DIVIDED BY THE AVERAGE OF IN AND OUT TIMES 100

 PERCENT DISCREPANCY =           0.00     PERCENT DISCREPANCY =           0.00






1
  VOLUMETRIC BUDGET FOR AGRICULTURAL FIELDS AT  END OF TIME STEP   30, STRESS PERIOD  25
  ------------------------------------------------------------------------------

     CUMULATIVE VOLUMES      L**3       RATES FOR THIS TIME STEP      L**3/T
     ------------------                 ------------------------

           IN:                                      IN:
           ---                                      ---
           AG WELLS      =   428269280.0000             AG WELLS      =           0.0000
      DIVERSION SEGMENTS =   382511616.0000        DIVERSION SEGMENTS =           0.0000
           GW IRRIGATION =           0.0000             GW IRRIGATION =           0.0000
           SW IRRIGATION =           0.0000             SW IRRIGATION =           0.0000
        SYSTEM LOSSES GW =           0.0000          SYSTEM LOSSES GW =           0.0000
        SYSTEM LOSSES SW =           0.0000          SYSTEM LOSSES SW =           0.0000

                TOTAL IN =   810780928.0000                  TOTAL IN =           0.0000

          OUT:                                     OUT:
          ----                                     ----
           AG WELLS      =           0.0000             AG WELLS      =           0.0000
      DIVERSION SEGMENTS =           0.0000        DIVERSION SEGMENTS =           0.0000
           GW IRRIGATION =   428269280.0000             GW IRRIGATION =           0.0000
           SW IRRIGATION =   382519104.0000             SW IRRIGATION =           0.0000
        SYSTEM LOSSES GW =           0.0000          SYSTEM LOSSES GW =           0.0000
        SYSTEM LOSSES SW =           0.0000          SYSTEM LOSSES SW =           0.0000

               TOTAL OUT =   810788352.0000                 TOTAL OUT =           0.0000

                IN - OUT =       -7424.0000                  IN - OUT =           0.0000

     PERCENT DISCREPANCY =          -0.00         PERCENT DISCREPANCY =           0.00



1
  VOLUMETRIC BUDGET FOR ENTIRE MODEL AT END OF TIME STEP   30, STRESS PERIOD  25
  ------------------------------------------------------------------------------

     CUMULATIVE VOLUMES      L**3       RATES FOR THIS TIME STEP      L**3/T
     ------------------                 ------------------------

           IN:                                      IN:
           ---                                      ---
             STORAGE     =   611522112.0000               STORAGE     =           4.7809
       CONSTANT HEAD     =           0.0000         CONSTANT HEAD     =           0.0000
     HEAD DEP BOUNDS     =    18208286.0000       HEAD DEP BOUNDS     =           0.2884
      STREAM LEAKAGE     =   738524672.0000        STREAM LEAKAGE     =          11.3086
        UZF RECHARGE     =       73223.9531          UZF RECHARGE     =           0.0000
               GW ET     =           0.0000                 GW ET     =           0.0000
     SURFACE LEAKAGE     =           0.0000       SURFACE LEAKAGE     =           0.0000
           AG WELLS      =           0.0000             AG WELLS      =           0.0000

                TOTAL IN =  1368328192.0000                  TOTAL IN =          16.3780

          OUT:                                     OUT:
          ----                                     ----
             STORAGE     =   274054784.0000               STORAGE     =           6.0913
       CONSTANT HEAD     =           0.0000         CONSTANT HEAD     =           0.0000
     HEAD DEP BOUNDS     =    18193098.0000       HEAD DEP BOUNDS     =           0.2871
      STREAM LEAKAGE     =   647817344.0000        STREAM LEAKAGE     =           9.9995
        UZF RECHARGE     =           0.0000          UZF RECHARGE     =           0.0000
               GW ET     =           0.0000                 GW ET     =           0.0000
     SURFACE LEAKAGE     =           0.0000       SURFACE LEAKAGE     =           0.0000
           AG WELLS      =   428269280.0000             AG WELLS      =           0.0000

               TOTAL OUT =  1368334464.0000                 TOTAL OUT =          16.3780

                IN - OUT =       -6272.0000                  IN - OUT =       7.6294E-06

     PERCENT DISCREPANCY =          -0.00         PERCENT DISCREPANCY =           0.00






         TIME SUMMARY AT END OF TIME STEP   30 IN STRESS PERIOD   25
                    SECONDS     MINUTES      HOURS       DAYS        YEARS
                    -----------------------------------------------------------
   TIME STEP LENGTH  87667.      1461.1      24.352      1.0147     2.77799E-03
 STRESS PERIOD TIME 2.63000E+06  43833.      730.56      30.440     8.33397E-02
         TOTAL TIME 6.32067E+07 1.05345E+06  17557.      731.56      2.0029    
1
1
                            STRESS PERIOD NO.   26, LENGTH =   2630000.    
                            -----------------------------------------------

                              NUMBER OF TIME STEPS =    30

                               MULTIPLIER FOR DELT =     1.000

                            INITIAL TIME STEP SIZE =   87666.66    

 REUSING NON-PARAMETER GHB CELLS FROM LAST STRESS PERIOD

      2 GHB CELLS

 REUSING STREAM SEGMENT DATA FROM LAST STRESS PERIOD



            AREAL INFILTRATION RATE
 READING ON UNIT   19 WITH FORMAT: (FREE)              

            1           2           3           4           5           6           7           8           9          10
 ........................................................................................................................
   1   1.0000E-10  2.0000E-10   0.000       0.000       0.000       0.000       0.000       0.000       0.000       0.000    
   2   2.0000E-10  1.0000E-10  2.0000E-10   0.000       0.000      8.0000E-10  8.0000E-10  5.0000E-10   0.000       0.000    
   3    0.000      5.0000E-10  1.0000E-10  1.0000E-10  8.0000E-10  8.0000E-10  5.0000E-10  5.0000E-10   0.000       0.000    
   4   8.0000E-10  5.0000E-10  1.0000E-10  1.0000E-10  1.0000E-10  1.0000E-10  1.0000E-10  1.0000E-10  2.0000E-10   0.000    
   5   8.0000E-10  5.0000E-10  1.0000E-10  1.0000E-10  1.0000E-10  1.0000E-10  1.0000E-10  1.0000E-10  1.0000E-10  1.0000E-10
   6   8.0000E-10  5.0000E-10  5.0000E-10  2.0000E-10  2.0000E-10  1.0000E-10  1.0000E-10  1.0000E-10  1.0000E-10  5.0000E-10
   7   8.0000E-10  5.0000E-10  5.0000E-10  2.0000E-10  2.0000E-10  1.0000E-10  1.0000E-10  2.0000E-10  2.0000E-10   0.000    
   8    0.000      5.0000E-10  5.0000E-10  2.0000E-10  2.0000E-10  1.0000E-10  1.0000E-10  2.0000E-10  5.0000E-10   0.000    
   9    0.000      5.0000E-10  5.0000E-10  2.0000E-10  2.0000E-10  1.0000E-10  1.0000E-10  2.0000E-10  5.0000E-10   0.000    
  10    0.000      5.0000E-10  5.0000E-10  2.0000E-10  2.0000E-10  1.0000E-10  1.0000E-10  2.0000E-10  5.0000E-10  8.0000E-10
  11    0.000      1.0000E-10  1.0000E-10  1.0000E-10  1.0000E-10  1.0000E-10  1.0000E-10  2.0000E-10  5.0000E-10   0.000    
  12   1.0000E-10  1.0000E-10  1.0000E-10  1.0000E-10  1.0000E-10  1.0000E-10  1.0000E-10  1.0000E-10  2.0000E-10   0.000    
  13   1.0000E-10  1.0000E-10  2.0000E-10  2.0000E-10  2.0000E-10  2.0000E-10  2.0000E-10  1.0000E-10  1.0000E-10   0.000    
  14    0.000      2.0000E-10  5.0000E-10  5.0000E-10  5.0000E-10  5.0000E-10  5.0000E-10  2.0000E-10  1.0000E-10   0.000    
  15    0.000       0.000      8.0000E-10  8.0000E-10  8.0000E-10  8.0000E-10   0.000       0.000       0.000       0.000    

                  ET RATE =  5.000000E-10

 USING ET EXTINCTION DEPTH FROM PREVIOUS STRESS PERIOD. CURRENT PERIOD IS:      26

 USING EXTINCTION WATER CONTENT FROM PREVIOUS STRESS PERIOD. CURRENT PERIOD IS:      26

 USING AIR ENTRY PRESSURE FROM PREVIOUS STRESS PERIOD. CURRENT PERIOD IS:      26

 USING ROOT PRESSURE HEAD FROM PREVIOUS STRESS PERIOD. CURRENT PERIOD IS:      26

 USING ROOT ACTIVITY FROM PREVIOUS STRESS PERIOD. CURRENT PERIOD IS:      26

 PROCESSING AG STRESS PERIOD DATA

 READING AG STRESS PERIOD DATA

 READING IRRIGATION SEGMENT

 READING IRRIGATION WELL

 READING SUPPLEMENTAL WELL

 END PROCESSING AG STRESS PERIOD DATA OPTIONS
 
 SOLVING FOR HEAD 
                                                   Max.-Head-Change                         Max.-Flux-Residual
  Residual-Control   Outer-Iter.   Inner-Iter.     Column Row Layer    Maximum-Head-Change  Column Row Layer    Maximum-Flux-Residual          L2-NORM 
          0                 1           2             4    7     1       0.1553787153E-01       4    7    1         0.8164959453E+00      0.1857774026E+01
          0                 2           2             4    7     1      -0.1511416338E-02       4    7    1        -0.8164994068E-01      0.1857758364E+00
          0                 3           1             4    7     1       0.1029218017E-03       4    7    1         0.5715495049E-02      0.1300415154E-01
          0                 4           1             4    7     1      -0.4095357338E-05       4    7    1        -0.2337640740E-03      0.5318657370E-03

    ------------------------------------------------
       NWT REQUIRED            4 OUTER ITERATIONS 
       AND A TOTAL OF          6 INNER ITERATIONS.
    ------------------------------------------------

 NO OUTPUT CONTROL FOR STRESS PERIOD   26   TIME STEP    1
 
 SOLVING FOR HEAD 
                                                   Max.-Head-Change                         Max.-Flux-Residual
  Residual-Control   Outer-Iter.   Inner-Iter.     Column Row Layer    Maximum-Head-Change  Column Row Layer    Maximum-Flux-Residual          L2-NORM 
          0                 1           2             4    7     1       0.1536416580E-01       4    7    1         0.8073203861E+00      0.1838720328E+01
          0                 2           2             4    7     1      -0.1494519386E-02       4    7    1        -0.8073237651E-01      0.1838722372E+00
          0                 3           1             4    7     1       0.1017711833E-03       4    7    1         0.5651265600E-02      0.1287104981E-01
          0                 4           1             4    7     1      -0.4049573394E-05       4    7    1        -0.2311371036E-03      0.5264247455E-03

    ------------------------------------------------
       NWT REQUIRED            4 OUTER ITERATIONS 
       AND A TOTAL OF          6 INNER ITERATIONS.
    ------------------------------------------------

 NO OUTPUT CONTROL FOR STRESS PERIOD   26   TIME STEP    2
 
 SOLVING FOR HEAD 
                                                   Max.-Head-Change                         Max.-Flux-Residual
  Residual-Control   Outer-Iter.   Inner-Iter.     Column Row Layer    Maximum-Head-Change  Column Row Layer    Maximum-Flux-Residual          L2-NORM 
          0                 1           2             4    7     1       0.1519337093E-01       4    7    1         0.7982992708E+00      0.1822087761E+01
          0                 2           2             4    7     1      -0.1477905583E-02       4    7    1        -0.7983025695E-01      0.1822054938E+00
          0                 3           1             4    7     1       0.1006398457E-03       4    7    1         0.5588117270E-02      0.1275438262E-01
          0                 4           1             4    7     1      -0.4004556084E-05       4    7    1        -0.2285543180E-03      0.5216536093E-03

    ------------------------------------------------
       NWT REQUIRED            4 OUTER ITERATIONS 
       AND A TOTAL OF          6 INNER ITERATIONS.
    ------------------------------------------------

 NO OUTPUT CONTROL FOR STRESS PERIOD   26   TIME STEP    3
 
 SOLVING FOR HEAD 
                                                   Max.-Head-Change                         Max.-Flux-Residual
  Residual-Control   Outer-Iter.   Inner-Iter.     Column Row Layer    Maximum-Head-Change  Column Row Layer    Maximum-Flux-Residual          L2-NORM 
          0                 1           2             4    7     1       0.1502541869E-01       4    7    1         0.7894290795E+00      0.1805817243E+01
          0                 2           2             4    7     1      -0.1461568294E-02       4    7    1        -0.7894323001E-01      0.1805819349E+00
          0                 3           1             4    7     1       0.9952733811E-04       4    7    1         0.5526025436E-02      0.1264073819E-01

    ------------------------------------------------
       NWT REQUIRED            3 OUTER ITERATIONS 
       AND A TOTAL OF          5 INNER ITERATIONS.
    ------------------------------------------------

 NO OUTPUT CONTROL FOR STRESS PERIOD   26   TIME STEP    4
 
 SOLVING FOR HEAD 
                                                   Max.-Head-Change                         Max.-Flux-Residual
  Residual-Control   Outer-Iter.   Inner-Iter.     Column Row Layer    Maximum-Head-Change  Column Row Layer    Maximum-Flux-Residual          L2-NORM 
          0                 1           2             4    7     1       0.1485992291E-01       4    7    1         0.7806886092E+00      0.1789779073E+01
          0                 2           2             4    7     1      -0.1445469955E-02       4    7    1        -0.7806917538E-01      0.1789781284E+00
          0                 3           1             4    7     1       0.9843110195E-04       4    7    1         0.5464841654E-02      0.1252846811E-01

    ------------------------------------------------
       NWT REQUIRED            3 OUTER ITERATIONS 
       AND A TOTAL OF          5 INNER ITERATIONS.
    ------------------------------------------------

 NO OUTPUT CONTROL FOR STRESS PERIOD   26   TIME STEP    5
 
 SOLVING FOR HEAD 
                                                   Max.-Head-Change                         Max.-Flux-Residual
  Residual-Control   Outer-Iter.   Inner-Iter.     Column Row Layer    Maximum-Head-Change  Column Row Layer    Maximum-Flux-Residual          L2-NORM 
          0                 1           2             4    7     1       0.1469729740E-01       4    7    1         0.7721005437E+00      0.1773985999E+01
          0                 2           2             4    7     1      -0.1429650819E-02       4    7    1        -0.7721036143E-01      0.1773988188E+00
          0                 3           1             4    7     1       0.9735387870E-04       4    7    1         0.5404724734E-02      0.1241791816E-01

    ------------------------------------------------
       NWT REQUIRED            3 OUTER ITERATIONS 
       AND A TOTAL OF          5 INNER ITERATIONS.
    ------------------------------------------------

 NO OUTPUT CONTROL FOR STRESS PERIOD   26   TIME STEP    6
 
 SOLVING FOR HEAD 
                                                   Max.-Head-Change                         Max.-Flux-Residual
  Residual-Control   Outer-Iter.   Inner-Iter.     Column Row Layer    Maximum-Head-Change  Column Row Layer    Maximum-Flux-Residual          L2-NORM 
          0                 1           2             4    7     1       0.1453720383E-01       4    7    1         0.7636466385E+00      0.1758427945E+01
          0                 2           2             4    7     1      -0.1414077972E-02       4    7    1        -0.7636496369E-01      0.1758430070E+00
          0                 3           1             4    7     1       0.9629342648E-04       4    7    1         0.5345546929E-02      0.1230900979E-01

    ------------------------------------------------
       NWT REQUIRED            3 OUTER ITERATIONS 
       AND A TOTAL OF          5 INNER ITERATIONS.
    ------------------------------------------------

 NO OUTPUT CONTROL FOR STRESS PERIOD   26   TIME STEP    7
 
 SOLVING FOR HEAD 
                                                   Max.-Head-Change                         Max.-Flux-Residual
  Residual-Control   Outer-Iter.   Inner-Iter.     Column Row Layer    Maximum-Head-Change  Column Row Layer    Maximum-Flux-Residual          L2-NORM 
          0                 1           2             4    7     1       0.1437958779E-01       4    7    1         0.7553240093E+00      0.1743093300E+01
          0                 2           2             4    7     1      -0.1398763400E-02       4    7    1        -0.7553269377E-01      0.1743380134E+00
          0                 3           1             4    7     1       0.9525056180E-04       4    7    1         0.5287288078E-02      0.1220365796E-01

    ------------------------------------------------
       NWT REQUIRED            3 OUTER ITERATIONS 
       AND A TOTAL OF          5 INNER ITERATIONS.
    ------------------------------------------------

 NO OUTPUT CONTROL FOR STRESS PERIOD   26   TIME STEP    8
 
 SOLVING FOR HEAD 
                                                   Max.-Head-Change                         Max.-Flux-Residual
  Residual-Control   Outer-Iter.   Inner-Iter.     Column Row Layer    Maximum-Head-Change  Column Row Layer    Maximum-Flux-Residual          L2-NORM 
          0                 1           2             4    7     1       0.1422457336E-01       4    7    1         0.7471435777E+00      0.1727963863E+01
          0                 2           2             4    7     1      -0.1383667358E-02       4    7    1        -0.7471464395E-01      0.1727965995E+00
          0                 3           1             4    7     1       0.9422257842E-04       4    7    1         0.5230024632E-02      0.1209577390E-01

    ------------------------------------------------
       NWT REQUIRED            3 OUTER ITERATIONS 
       AND A TOTAL OF          5 INNER ITERATIONS.
    ------------------------------------------------

 NO OUTPUT CONTROL FOR STRESS PERIOD   26   TIME STEP    9
 
 SOLVING FOR HEAD 
                                                   Max.-Head-Change                         Max.-Flux-Residual
  Residual-Control   Outer-Iter.   Inner-Iter.     Column Row Layer    Maximum-Head-Change  Column Row Layer    Maximum-Flux-Residual          L2-NORM 
          0                 1           2             4    7     1       0.1407188593E-01       4    7    1         0.7390852096E+00      0.1712997976E+01
          0                 2           2             4    7     1      -0.1368814937E-02       4    7    1        -0.7390880060E-01      0.1712999833E+00
          0                 3           1             4    7     1       0.9321118419E-04       4    7    1         0.5173615615E-02      0.1199100114E-01

    ------------------------------------------------
       NWT REQUIRED            3 OUTER ITERATIONS 
       AND A TOTAL OF          5 INNER ITERATIONS.
    ------------------------------------------------

 NO OUTPUT CONTROL FOR STRESS PERIOD   26   TIME STEP   10
 
 SOLVING FOR HEAD 
                                                   Max.-Head-Change                         Max.-Flux-Residual
  Residual-Control   Outer-Iter.   Inner-Iter.     Column Row Layer    Maximum-Head-Change  Column Row Layer    Maximum-Flux-Residual          L2-NORM 
          0                 1           2             4    7     1       0.1392146939E-01       4    7    1         0.7311465743E+00      0.1698256102E+01
          0                 2           2             4    7     1      -0.1354183416E-02       4    7    1        -0.7311493069E-01      0.1698257659E+00
          0                 3           1             4    7     1       0.9221483303E-04       4    7    1         0.5118044777E-02      0.1188779691E-01

    ------------------------------------------------
       NWT REQUIRED            3 OUTER ITERATIONS 
       AND A TOTAL OF          5 INNER ITERATIONS.
    ------------------------------------------------

 NO OUTPUT CONTROL FOR STRESS PERIOD   26   TIME STEP   11
 
 SOLVING FOR HEAD 
                                                   Max.-Head-Change                         Max.-Flux-Residual
  Residual-Control   Outer-Iter.   Inner-Iter.     Column Row Layer    Maximum-Head-Change  Column Row Layer    Maximum-Flux-Residual          L2-NORM 
          0                 1           2             4    7     1       0.1377355051E-01       4    7    1         0.7233403430E+00      0.1683732441E+01
          0                 2           2             4    7     1      -0.1339794849E-02       4    7    1        -0.7233430135E-01      0.1683733752E+00
          0                 3           1             4    7     1       0.9123502604E-04       4    7    1         0.5063400766E-02      0.1178612407E-01

    ------------------------------------------------
       NWT REQUIRED            3 OUTER ITERATIONS 
       AND A TOTAL OF          5 INNER ITERATIONS.
    ------------------------------------------------

 NO OUTPUT CONTROL FOR STRESS PERIOD   26   TIME STEP   12
 
 SOLVING FOR HEAD 
                                                   Max.-Head-Change                         Max.-Flux-Residual
  Residual-Control   Outer-Iter.   Inner-Iter.     Column Row Layer    Maximum-Head-Change  Column Row Layer    Maximum-Flux-Residual          L2-NORM 
          0                 1           2             4    7     1       0.1362780507E-01       4    7    1         0.7156489489E+00      0.1669411235E+01
          0                 2           2             4    7     1      -0.1325617702E-02       4    7    1        -0.7156515588E-01      0.1669412370E+00
          0                 3           1             4    7     1       0.9026961564E-04       4    7    1         0.5009560607E-02      0.1168588382E-01

    ------------------------------------------------
       NWT REQUIRED            3 OUTER ITERATIONS 
       AND A TOTAL OF          5 INNER ITERATIONS.
    ------------------------------------------------

 NO OUTPUT CONTROL FOR STRESS PERIOD   26   TIME STEP   13
 
 SOLVING FOR HEAD 
                                                   Max.-Head-Change                         Max.-Flux-Residual
  Residual-Control   Outer-Iter.   Inner-Iter.     Column Row Layer    Maximum-Head-Change  Column Row Layer    Maximum-Flux-Residual          L2-NORM 
          0                 1           2             4    7     1       0.1348432997E-01       4    7    1         0.7080775751E+00      0.1655302281E+01
          0                 2           2             4    7     1      -0.1311661400E-02       4    7    1        -0.7080801260E-01      0.1655303080E+00
          0                 3           1             4    7     1       0.8931924406E-04       4    7    1         0.4956560608E-02      0.1158711112E-01

    ------------------------------------------------
       NWT REQUIRED            3 OUTER ITERATIONS 
       AND A TOTAL OF          5 INNER ITERATIONS.
    ------------------------------------------------

 NO OUTPUT CONTROL FOR STRESS PERIOD   26   TIME STEP   14
 
 SOLVING FOR HEAD 
                                                   Max.-Head-Change                         Max.-Flux-Residual
  Residual-Control   Outer-Iter.   Inner-Iter.     Column Row Layer    Maximum-Head-Change  Column Row Layer    Maximum-Flux-Residual          L2-NORM 
          0                 1           2             4    7     1       0.1334307842E-01       4    7    1         0.7006239152E+00      0.1641390383E+01
          0                 2           2             4    7     1      -0.1297921390E-02       4    7    1        -0.7006264085E-01      0.1641390990E+00
          0                 3           1             4    7     1       0.8838360090E-04       4    7    1         0.4904384607E-02      0.1148971755E-01

    ------------------------------------------------
       NWT REQUIRED            3 OUTER ITERATIONS 
       AND A TOTAL OF          5 INNER ITERATIONS.
    ------------------------------------------------

 NO OUTPUT CONTROL FOR STRESS PERIOD   26   TIME STEP   15
 
 SOLVING FOR HEAD 
                                                   Max.-Head-Change                         Max.-Flux-Residual
  Residual-Control   Outer-Iter.   Inner-Iter.     Column Row Layer    Maximum-Head-Change  Column Row Layer    Maximum-Flux-Residual          L2-NORM 
          0                 1           2             4    7     1       0.1320400684E-01       4    7    1         0.6932855423E+00      0.1627673851E+01
          0                 2           2             4    7     1      -0.1284393434E-02       4    7    1        -0.6932879795E-01      0.1627674151E+00
          0                 3           1             4    7     1       0.8746239835E-04       4    7    1         0.4853015653E-02      0.1139370484E-01

    ------------------------------------------------
       NWT REQUIRED            3 OUTER ITERATIONS 
       AND A TOTAL OF          5 INNER ITERATIONS.
    ------------------------------------------------

 NO OUTPUT CONTROL FOR STRESS PERIOD   26   TIME STEP   16
 
 SOLVING FOR HEAD 
                                                   Max.-Head-Change                         Max.-Flux-Residual
  Residual-Control   Outer-Iter.   Inner-Iter.     Column Row Layer    Maximum-Head-Change  Column Row Layer    Maximum-Flux-Residual          L2-NORM 
          0                 1           2             4    7     1       0.1306693838E-01       4    7    1         0.6860528650E+00      0.1614155382E+01
          0                 2           2             4    7     1      -0.1271060328E-02       4    7    1        -0.6860552474E-01      0.1614155441E+00
          0                 3           1             4    7     1       0.8655446406E-04       4    7    1         0.4802386549E-02      0.1129907285E-01

    ------------------------------------------------
       NWT REQUIRED            3 OUTER ITERATIONS 
       AND A TOTAL OF          5 INNER ITERATIONS.
    ------------------------------------------------

 NO OUTPUT CONTROL FOR STRESS PERIOD   26   TIME STEP   17
 
 SOLVING FOR HEAD 
                                                   Max.-Head-Change                         Max.-Flux-Residual
  Residual-Control   Outer-Iter.   Inner-Iter.     Column Row Layer    Maximum-Head-Change  Column Row Layer    Maximum-Flux-Residual          L2-NORM 
          0                 1           2             4    7     1       0.1293210108E-01       4    7    1         0.6789387104E+00      0.1600824280E+01
          0                 2           2             4    7     1      -0.1257944256E-02       4    7    1        -0.6789410396E-01      0.1600823991E+00
          0                 3           1             4    7     1       0.8566130860E-04       4    7    1         0.4752587119E-02      0.1120573808E-01

    ------------------------------------------------
       NWT REQUIRED            3 OUTER ITERATIONS 
       AND A TOTAL OF          5 INNER ITERATIONS.
    ------------------------------------------------

 NO OUTPUT CONTROL FOR STRESS PERIOD   26   TIME STEP   18
 
 SOLVING FOR HEAD 
                                                   Max.-Head-Change                         Max.-Flux-Residual
  Residual-Control   Outer-Iter.   Inner-Iter.     Column Row Layer    Maximum-Head-Change  Column Row Layer    Maximum-Flux-Residual          L2-NORM 
          0                 1           2             4    7     1       0.1279931654E-01       4    7    1         0.6719329057E+00      0.1587682634E+01
          0                 2           2             4    7     1      -0.1245027864E-02       4    7    1        -0.6719351826E-01      0.1587682147E+00
          0                 3           1             4    7     1       0.8478175131E-04       4    7    1         0.4703546166E-02      0.1111377301E-01

    ------------------------------------------------
       NWT REQUIRED            3 OUTER ITERATIONS 
       AND A TOTAL OF          5 INNER ITERATIONS.
    ------------------------------------------------

 NO OUTPUT CONTROL FOR STRESS PERIOD   26   TIME STEP   19
 
 SOLVING FOR HEAD 
                                                   Max.-Head-Change                         Max.-Flux-Residual
  Residual-Control   Outer-Iter.   Inner-Iter.     Column Row Layer    Maximum-Head-Change  Column Row Layer    Maximum-Flux-Residual          L2-NORM 
          0                 1           2             4    7     1       0.1266840628E-01       4    7    1         0.6650262008E+00      0.1574722136E+01
          0                 2           2             4    7     1      -0.1232293790E-02       4    7    1        -0.6650284270E-01      0.1574713374E+00
          0                 3           1             4    7     1       0.8391460849E-04       4    7    1         0.4655198887E-02      0.1102297233E-01

    ------------------------------------------------
       NWT REQUIRED            3 OUTER ITERATIONS 
       AND A TOTAL OF          5 INNER ITERATIONS.
    ------------------------------------------------

 NO OUTPUT CONTROL FOR STRESS PERIOD   26   TIME STEP   20
 
 SOLVING FOR HEAD 
                                                   Max.-Head-Change                         Max.-Flux-Residual
  Residual-Control   Outer-Iter.   Inner-Iter.     Column Row Layer    Maximum-Head-Change  Column Row Layer    Maximum-Flux-Residual          L2-NORM 
          0                 1           2             4    7     1       0.1253960642E-01       4    7    1         0.6582313394E+00      0.1561939156E+01
          0                 2           2             4    7     1      -0.1219765003E-02       4    7    1        -0.6582335163E-01      0.1561938188E+00
          0                 3           1             4    7     1       0.8306144501E-04       4    7    1         0.4607634530E-02      0.1093354514E-01

    ------------------------------------------------
       NWT REQUIRED            3 OUTER ITERATIONS 
       AND A TOTAL OF          5 INNER ITERATIONS.
    ------------------------------------------------

 NO OUTPUT CONTROL FOR STRESS PERIOD   26   TIME STEP   21
 
 SOLVING FOR HEAD 
                                                   Max.-Head-Change                         Max.-Flux-Residual
  Residual-Control   Outer-Iter.   Inner-Iter.     Column Row Layer    Maximum-Head-Change  Column Row Layer    Maximum-Flux-Residual          L2-NORM 
          0                 1           2             4    7     1       0.1241273766E-01       4    7    1         0.6515385664E+00      0.1549341847E+01
          0                 2           2             4    7     1      -0.1207424061E-02       4    7    1        -0.6515406950E-01      0.1549340583E+00
          0                 3           1             4    7     1       0.8222107373E-04       4    7    1         0.4560784821E-02      0.1084535288E-01

    ------------------------------------------------
       NWT REQUIRED            3 OUTER ITERATIONS 
       AND A TOTAL OF          5 INNER ITERATIONS.
    ------------------------------------------------

 NO OUTPUT CONTROL FOR STRESS PERIOD   26   TIME STEP   22
 
 SOLVING FOR HEAD 
                                                   Max.-Head-Change                         Max.-Flux-Residual
  Residual-Control   Outer-Iter.   Inner-Iter.     Column Row Layer    Maximum-Head-Change  Column Row Layer    Maximum-Flux-Residual          L2-NORM 
          0                 1           2             4    7     1       0.1228775937E-01       4    7    1         0.6449459174E+00      0.1536912342E+01
          0                 2           2             4    7     1      -0.1195267010E-02       4    7    1        -0.6449479990E-01      0.1536910717E+00
          0                 3           1             4    7     1       0.8139322423E-04       4    7    1         0.4514635974E-02      0.1075833851E-01

    ------------------------------------------------
       NWT REQUIRED            3 OUTER ITERATIONS 
       AND A TOTAL OF          5 INNER ITERATIONS.
    ------------------------------------------------

 NO OUTPUT CONTROL FOR STRESS PERIOD   26   TIME STEP   23
 
 SOLVING FOR HEAD 
                                                   Max.-Head-Change                         Max.-Flux-Residual
  Residual-Control   Outer-Iter.   Inner-Iter.     Column Row Layer    Maximum-Head-Change  Column Row Layer    Maximum-Flux-Residual          L2-NORM 
          0                 1           2             4    7     1       0.1216463230E-01       4    7    1         0.6384512857E+00      0.1524643907E+01
          0                 2           2             4    7     1      -0.1185427852E-02       4    7    1        -0.6398349324E-01      0.1525067849E+00
          0                 3           1             4    7     1       0.8072321107E-04       4    7    1         0.4478844307E-02      0.1067543945E-01

    ------------------------------------------------
       NWT REQUIRED            3 OUTER ITERATIONS 
       AND A TOTAL OF          5 INNER ITERATIONS.
    ------------------------------------------------

 NO OUTPUT CONTROL FOR STRESS PERIOD   26   TIME STEP   24
 
 SOLVING FOR HEAD 
                                                   Max.-Head-Change                         Max.-Flux-Residual
  Residual-Control   Outer-Iter.   Inner-Iter.     Column Row Layer    Maximum-Head-Change  Column Row Layer    Maximum-Flux-Residual          L2-NORM 
          0                 1           2             4    7     1       0.1203822151E-01       4    7    1         0.6319386155E+00      0.1512513675E+01
          0                 2           2             4    7     1      -0.1170993930E-02       4    7    1        -0.6319408040E-01      0.1512511815E+00
          0                 3           1             4    7     1       0.7974031609E-04       4    7    1         0.4423585473E-02      0.1058755514E-01

    ------------------------------------------------
       NWT REQUIRED            3 OUTER ITERATIONS 
       AND A TOTAL OF          5 INNER ITERATIONS.
    ------------------------------------------------

 NO OUTPUT CONTROL FOR STRESS PERIOD   26   TIME STEP   25
 
 SOLVING FOR HEAD 
                                                   Max.-Head-Change                         Max.-Flux-Residual
  Residual-Control   Outer-Iter.   Inner-Iter.     Column Row Layer    Maximum-Head-Change  Column Row Layer    Maximum-Flux-Residual          L2-NORM 
          0                 1           2             4    7     1       0.1191602139E-01       4    7    1         0.6254836700E+00      0.1500531921E+01
          0                 2           2             4    7     1      -0.1159107110E-02       4    7    1        -0.6254858038E-01      0.1500529889E+00
          0                 3           1             4    7     1       0.7893086841E-04       4    7    1         0.4378400492E-02      0.1050368547E-01

    ------------------------------------------------
       NWT REQUIRED            3 OUTER ITERATIONS 
       AND A TOTAL OF          5 INNER ITERATIONS.
    ------------------------------------------------

 NO OUTPUT CONTROL FOR STRESS PERIOD   26   TIME STEP   26
 
 SOLVING FOR HEAD 
                                                   Max.-Head-Change                         Max.-Flux-Residual
  Residual-Control   Outer-Iter.   Inner-Iter.     Column Row Layer    Maximum-Head-Change  Column Row Layer    Maximum-Flux-Residual          L2-NORM 
          0                 1           2             4    7     1       0.1179591912E-01       4    7    1         0.6191404180E+00      0.1488718954E+01
          0                 2           2             4    7     1      -0.1147424357E-02       4    7    1        -0.6191424989E-01      0.1488716626E+00
          0                 3           1             4    7     1       0.7813531724E-04       4    7    1         0.4333997404E-02      0.1042098171E-01

    ------------------------------------------------
       NWT REQUIRED            3 OUTER ITERATIONS 
       AND A TOTAL OF          5 INNER ITERATIONS.
    ------------------------------------------------

 NO OUTPUT CONTROL FOR STRESS PERIOD   26   TIME STEP   27
 
 SOLVING FOR HEAD 
                                                   Max.-Head-Change                         Max.-Flux-Residual
  Residual-Control   Outer-Iter.   Inner-Iter.     Column Row Layer    Maximum-Head-Change  Column Row Layer    Maximum-Flux-Residual          L2-NORM 
          0                 1           2             4    7     1       0.1167772528E-01       4    7    1         0.6128986023E+00      0.1477066137E+01
          0                 2           2             4    7     1      -0.1135927243E-02       4    7    1        -0.6129006317E-01      0.1477063702E+00
          0                 3           1             4    7     1       0.7735240679E-04       4    7    1         0.4290304348E-02      0.1033940823E-01

    ------------------------------------------------
       NWT REQUIRED            3 OUTER ITERATIONS 
       AND A TOTAL OF          5 INNER ITERATIONS.
    ------------------------------------------------

 NO OUTPUT CONTROL FOR STRESS PERIOD   26   TIME STEP   28
 
 SOLVING FOR HEAD 
                                                   Max.-Head-Change                         Max.-Flux-Residual
  Residual-Control   Outer-Iter.   Inner-Iter.     Column Row Layer    Maximum-Head-Change  Column Row Layer    Maximum-Flux-Residual          L2-NORM 
          0                 1           2             4    7     1       0.1156139567E-01       4    7    1         0.6067557352E+00      0.1465572854E+01
          0                 2           2             4    7     1      -0.1124611470E-02       4    7    1        -0.6067577148E-01      0.1465567954E+00
          0                 3           1             4    7     1       0.7658184536E-04       4    7    1         0.4247303957E-02      0.1025879673E-01

    ------------------------------------------------
       NWT REQUIRED            3 OUTER ITERATIONS 
       AND A TOTAL OF          5 INNER ITERATIONS.
    ------------------------------------------------

 NO OUTPUT CONTROL FOR STRESS PERIOD   26   TIME STEP   29
 
 SOLVING FOR HEAD 
                                                   Max.-Head-Change                         Max.-Flux-Residual
  Residual-Control   Outer-Iter.   Inner-Iter.     Column Row Layer    Maximum-Head-Change  Column Row Layer    Maximum-Flux-Residual          L2-NORM 
          0                 1           2             4    7     1       0.1144688032E-01       4    7    1         0.6007095254E+00      0.1454230357E+01
          0                 2           2             4    7     1      -0.1113472177E-02       4    7    1        -0.6007114567E-01      0.1454227514E+00
          0                 3           1             4    7     1       0.7582330173E-04       4    7    1         0.4204980188E-02      0.1017955318E-01

    ------------------------------------------------
       NWT REQUIRED            3 OUTER ITERATIONS 
       AND A TOTAL OF          5 INNER ITERATIONS.
    ------------------------------------------------

 NO OUTPUT CONTROL FOR STRESS PERIOD   26   TIME STEP   30



 STREAM LISTING     PERIOD     26   STEP       30

 LAYER ROW COL. STREAM  RCH.  FLOW INTO     FLOW TO   FLOW OUT OF   OVRLND.     DIRECT     STREAM       STREAM     STREAM     STREAM   STREAMBED  STREAMBED
                SEG.NO.  NO.  STRM. RCH.    AQUIFER    STRM. RCH.    RUNOFF     PRECIP       ET          HEAD       DEPTH      WIDTH   CONDCTNC.   GRADIENT

   1    1    1     1     1    8.2501E+00  1.3178E-01   8.1183E+00  0.000E+00  0.000E+00  0.000E+00  1.09389E+03  8.424E-01  7.622E+00  3.430E-02  1.281E+00
   1    2    2     1     2    8.1183E+00  2.0241E-01   7.9159E+00  0.000E+00  0.000E+00  0.000E+00  1.08890E+03  8.367E-01  7.537E+00  5.276E-02  1.279E+00
   1    3    3     1     3    7.9159E+00  1.7099E-01   7.7449E+00  0.000E+00  0.000E+00  0.000E+00  1.08325E+03  8.302E-01  7.440E+00  4.464E-02  1.277E+00
   1    3    4     1     4    7.7449E+00  1.5612E-01   7.5888E+00  0.000E+00  0.000E+00  0.000E+00  1.07823E+03  8.244E-01  7.355E+00  4.082E-02  1.275E+00
   1    4    5     2     1    5.5888E+00  2.7178E-01   5.3170E+00  0.000E+00  0.000E+00  0.000E+00  1.07242E+03  4.843E-01  1.200E+01  7.800E-02  1.161E+00
   1    5    6     2     2    5.3170E+00  2.0828E-01   5.1088E+00  0.000E+00  0.000E+00  0.000E+00  1.06698E+03  4.714E-01  1.200E+01  6.000E-02  1.157E+00
   1    6    6     2     3    5.1088E+00  2.0760E-01   4.9012E+00  0.000E+00  0.000E+00  0.000E+00  1.06225E+03  4.600E-01  1.200E+01  6.000E-02  1.153E+00
   1    7    6     2     4    4.9012E+00  2.0691E-01   4.6943E+00  0.000E+00  0.000E+00  0.000E+00  1.05752E+03  4.485E-01  1.200E+01  6.000E-02  1.150E+00
   1    8    6     2     5    4.6943E+00  2.0621E-01   4.4880E+00  0.000E+00  0.000E+00  0.000E+00  1.05280E+03  4.368E-01  1.200E+01  6.000E-02  1.146E+00
   1    3    5     3     1    2.0000E+00  2.8252E-01   1.7175E+00  0.000E+00  0.000E+00  0.000E+00  1.07555E+03  1.909E+00  9.636E+00  7.227E-02  1.955E+00
   1    3    6     3     2    1.7175E+00  2.4905E-01   1.4684E+00  0.000E+00  0.000E+00  0.000E+00  1.07264E+03  1.727E+00  8.909E+00  6.682E-02  1.864E+00
   1    3    7     3     3    1.4684E+00  1.9718E-01   1.2712E+00  0.000E+00  0.000E+00  0.000E+00  1.06987E+03  1.555E+00  8.218E+00  5.547E-02  1.777E+00
   1    4    8     3     4    1.2712E+00  2.2567E-01   1.0456E+00  0.000E+00  0.000E+00  0.000E+00  1.06682E+03  1.364E+00  7.455E+00  6.709E-02  1.682E+00
   1    5    8     3     5    1.0456E+00  1.5790E-01   8.8768E-01  0.000E+00  0.000E+00  0.000E+00  1.06362E+03  1.164E+00  6.655E+00  4.991E-02  1.582E+00
   1    6    8     3     6    8.8768E-01  5.5980E-02   8.3170E-01  0.000E+00  0.000E+00  0.000E+00  1.06158E+03  1.036E+00  6.145E+00  1.844E-02  1.518E+00
   1    5   10     4     1    1.0000E+01  9.0919E-02   9.9091E+00  0.000E+00  0.000E+00  0.000E+00  1.07836E+03  6.368E-01  1.000E+01  2.500E-02  1.212E+00
   1    5    9     4     2    9.9091E+00  1.8158E-01   9.7275E+00  0.000E+00  0.000E+00  0.000E+00  1.07154E+03  6.315E-01  1.000E+01  5.000E-02  1.211E+00
   1    6    8     4     3    9.7275E+00  1.2689E-01   9.6006E+00  0.000E+00  0.000E+00  0.000E+00  1.06381E+03  6.256E-01  1.000E+01  3.500E-02  1.209E+00
   1    6    8     5     1    1.0432E+01  2.2686E-01   1.0205E+01  0.000E+00  0.000E+00  0.000E+00  1.05868E+03  6.790E-01  1.542E+01  6.166E-02  1.226E+00
   1    7    7     5     2    1.0205E+01  2.7894E-01   9.9265E+00  0.000E+00  0.000E+00  0.000E+00  1.05417E+03  6.732E-01  1.519E+01  7.594E-02  1.224E+00
   1    8    7     5     3    9.9265E+00  1.9221E-01   9.7343E+00  0.000E+00  0.000E+00  0.000E+00  1.04992E+03  6.676E-01  1.497E+01  5.241E-02  1.223E+00
   1    8    6     5     4    9.7343E+00  1.3577E-01   9.5985E+00  0.000E+00  0.000E+00  0.000E+00  1.04691E+03  6.637E-01  1.482E+01  3.706E-02  1.221E+00
   1    9    6     6     1    1.4087E+01  2.3167E-01   1.3855E+01  0.000E+00  0.000E+00  0.000E+00  1.04359E+03  8.612E-01  1.200E+01  6.000E-02  1.287E+00
   1   10    7     6     2    1.3855E+01  2.3116E-01   1.3624E+01  0.000E+00  0.000E+00  0.000E+00  1.03903E+03  8.526E-01  1.200E+01  6.000E-02  1.284E+00
   1   11    7     6     3    1.3624E+01  2.3064E-01   1.3393E+01  0.000E+00  0.000E+00  0.000E+00  1.03448E+03  8.440E-01  1.200E+01  6.000E-02  1.281E+00
   1   12    7     6     4    1.3393E+01  2.3012E-01   1.3163E+01  0.000E+00  0.000E+00  0.000E+00  1.02993E+03  8.353E-01  1.200E+01  6.000E-02  1.278E+00
   1   13    7     6     5    1.3163E+01  2.8517E-04   1.3163E+01  0.000E+00  0.000E+00  0.000E+00  1.02674E+03  8.310E-01  1.200E+01  2.400E-02  3.961E-03
   1   14    9     7     1    1.5000E+02  1.3759E+00   1.4862E+02  0.000E+00  0.000E+00  0.000E+00  1.03987E+03  2.288E+00  5.529E+01  5.593E-01  8.200E-01
   1   13    8     7     2    1.4862E+02  1.9485E+00   1.4668E+02  0.000E+00  0.000E+00  0.000E+00  1.03478E+03  2.279E+00  5.525E+01  6.147E-01  1.057E+00
   1   13    7     7     3    1.4668E+02  1.6530E+00   1.4502E+02  0.000E+00  0.000E+00  0.000E+00  1.02969E+03  2.269E+00  5.521E+01  5.584E-01  9.868E-01
   1   13    6     8     1    1.5819E+02  1.0386E+00   1.5715E+02  0.000E+00  0.000E+00  0.000E+00  1.02474E+03  2.870E+00  4.161E+01  4.241E-01  8.164E-01
   1   13    5     8     2    1.5715E+02  2.9514E-01   1.5685E+02  0.000E+00  0.000E+00  0.000E+00  1.01849E+03  2.865E+00  4.155E+01  4.234E-01  2.324E-01
   1   13    4     8     3    1.5685E+02 -2.0109E+00   1.5886E+02  0.000E+00  0.000E+00  0.000E+00  1.01225E+03  2.871E+00  4.163E+01  4.243E+00 -1.580E-01
   1   13    3     8     4    1.5886E+02 -3.4356E+00   1.6230E+02  0.000E+00  0.000E+00  0.000E+00  1.00601E+03  2.890E+00  4.190E+01  4.270E+00 -2.682E-01
   1   13    2     8     5    1.6230E+02 -2.5239E+00   1.6482E+02  0.000E+00  0.000E+00  0.000E+00  9.99785E+02  2.910E+00  4.219E+01  4.299E+00 -1.957E-01
   1   13    1     8     6    1.6482E+02 -1.9633E+00   1.6679E+02  0.000E+00  0.000E+00  0.000E+00  9.94800E+02  2.925E+00  4.241E+01  2.593E+00 -2.524E-01
   1    8    6     9     1    0.0000E+00  0.0000E+00   0.0000E+00  0.000E+00  0.000E+00  0.000E+00  1.07875E+03  0.000E+00  4.000E+00  0.000E+00  1.000E+00
   1    8    5     9     2    0.0000E+00  0.0000E+00   0.0000E+00  0.000E+00  0.000E+00  0.000E+00  1.07825E+03  0.000E+00  4.000E+00  0.000E+00  1.000E+00





UNSATURATED ZONE PACKAGE VOLUMETRIC BUDGET FOR  TIME STEP    30 STRESS PERIOD   26
  ------------------------------------------------------------------------------



     CUMULATIVE VOLUMES      L**3       RATES FOR THIS TIME STEP      L**3/T
     ------------------                 ------------------------

           IN:                                      IN:
           ---                                      ---
        INFILTRATION =   866543713.7878          INFILTRATION =           0.8475

          OUT:                                     OUT:
          ----                                     ----
              UZF ET =   862023571.3347                UZF ET =           0.7500
        UZF RECHARGE =       73224.0000          UZF RECHARGE =       0.0000E+00

            IN - OUT =     4446918.4531              IN - OUT =       9.7500E-02

          STORAGE:                                 STORAGE:
          --------                                 --------
      STORAGE CHANGE =     4446917.1122        STORAGE CHANGE =       9.7500E-02

 PERCENT DISCREPANCY IS DIFFERENCE BETWEEN IN-OUT MINUS CHANGE IN STORAGE
 DIVIDED BY THE AVERAGE OF IN AND OUT TIMES 100

 PERCENT DISCREPANCY =           0.00     PERCENT DISCREPANCY =           0.00






1
  VOLUMETRIC BUDGET FOR AGRICULTURAL FIELDS AT  END OF TIME STEP   30, STRESS PERIOD  26
  ------------------------------------------------------------------------------

     CUMULATIVE VOLUMES      L**3       RATES FOR THIS TIME STEP      L**3/T
     ------------------                 ------------------------

           IN:                                      IN:
           ---                                      ---
           AG WELLS      =   428269280.0000             AG WELLS      =           0.0000
      DIVERSION SEGMENTS =   382511616.0000        DIVERSION SEGMENTS =           0.0000
           GW IRRIGATION =           0.0000             GW IRRIGATION =           0.0000
           SW IRRIGATION =           0.0000             SW IRRIGATION =           0.0000
        SYSTEM LOSSES GW =           0.0000          SYSTEM LOSSES GW =           0.0000
        SYSTEM LOSSES SW =           0.0000          SYSTEM LOSSES SW =           0.0000

                TOTAL IN =   810780928.0000                  TOTAL IN =           0.0000

          OUT:                                     OUT:
          ----                                     ----
           AG WELLS      =           0.0000             AG WELLS      =           0.0000
      DIVERSION SEGMENTS =           0.0000        DIVERSION SEGMENTS =           0.0000
           GW IRRIGATION =   428269280.0000             GW IRRIGATION =           0.0000
           SW IRRIGATION =   382519104.0000             SW IRRIGATION =           0.0000
        SYSTEM LOSSES GW =           0.0000          SYSTEM LOSSES GW =           0.0000
        SYSTEM LOSSES SW =           0.0000          SYSTEM LOSSES SW =           0.0000

               TOTAL OUT =   810788352.0000                 TOTAL OUT =           0.0000

                IN - OUT =       -7424.0000                  IN - OUT =           0.0000

     PERCENT DISCREPANCY =          -0.00         PERCENT DISCREPANCY =           0.00



1
  VOLUMETRIC BUDGET FOR ENTIRE MODEL AT END OF TIME STEP   30, STRESS PERIOD  26
  ------------------------------------------------------------------------------

     CUMULATIVE VOLUMES      L**3       RATES FOR THIS TIME STEP      L**3/T
     ------------------                 ------------------------

           IN:                                      IN:
           ---                                      ---
             STORAGE     =   622447552.0000               STORAGE     =           3.7024
       CONSTANT HEAD     =           0.0000         CONSTANT HEAD     =           0.0000
     HEAD DEP BOUNDS     =    18966944.0000       HEAD DEP BOUNDS     =           0.2885
      STREAM LEAKAGE     =   768463040.0000        STREAM LEAKAGE     =          11.3986
        UZF RECHARGE     =       73223.9531          UZF RECHARGE     =           0.0000
               GW ET     =           0.0000                 GW ET     =           0.0000
     SURFACE LEAKAGE     =           0.0000       SURFACE LEAKAGE     =           0.0000
           AG WELLS      =           0.0000             AG WELLS      =           0.0000

                TOTAL IN =  1409950720.0000                  TOTAL IN =          15.3895

          OUT:                                     OUT:
          ----                                     ----
             STORAGE     =   288771776.0000               STORAGE     =           5.1691
       CONSTANT HEAD     =           0.0000         CONSTANT HEAD     =           0.0000
     HEAD DEP BOUNDS     =    18948262.0000       HEAD DEP BOUNDS     =           0.2872
      STREAM LEAKAGE     =   673968640.0000        STREAM LEAKAGE     =           9.9337
        UZF RECHARGE     =           0.0000          UZF RECHARGE     =           0.0000
               GW ET     =           0.0000                 GW ET     =           0.0000
     SURFACE LEAKAGE     =           0.0000       SURFACE LEAKAGE     =           0.0000
           AG WELLS      =   428269280.0000             AG WELLS      =           0.0000

               TOTAL OUT =  1409958016.0000                 TOTAL OUT =          15.3899

                IN - OUT =       -7296.0000                  IN - OUT =      -4.1580E-04

     PERCENT DISCREPANCY =          -0.00         PERCENT DISCREPANCY =          -0.00






         TIME SUMMARY AT END OF TIME STEP   30 IN STRESS PERIOD   26
                    SECONDS     MINUTES      HOURS       DAYS        YEARS
                    -----------------------------------------------------------
   TIME STEP LENGTH  87667.      1461.1      24.352      1.0147     2.77799E-03
 STRESS PERIOD TIME 2.63000E+06  43833.      730.56      30.440     8.33397E-02
         TOTAL TIME 6.58368E+07 1.09728E+06  18288.      762.00      2.0862    
1
1
                            STRESS PERIOD NO.   27, LENGTH =   2630000.    
                            -----------------------------------------------

                              NUMBER OF TIME STEPS =    30

                               MULTIPLIER FOR DELT =     1.000

                            INITIAL TIME STEP SIZE =   87666.66    

 REUSING NON-PARAMETER GHB CELLS FROM LAST STRESS PERIOD

      2 GHB CELLS

 REUSING STREAM SEGMENT DATA FROM LAST STRESS PERIOD



            AREAL INFILTRATION RATE
 READING ON UNIT   19 WITH FORMAT: (FREE)              

            1           2           3           4           5           6           7           8           9          10
 ........................................................................................................................
   1   1.0000E-10  2.0000E-10   0.000       0.000       0.000       0.000       0.000       0.000       0.000       0.000    
   2   2.0000E-10  1.0000E-10  2.0000E-10   0.000       0.000      8.0000E-10  8.0000E-10  5.0000E-10   0.000       0.000    
   3    0.000      5.0000E-10  1.0000E-10  1.0000E-10  8.0000E-10  8.0000E-10  5.0000E-10  5.0000E-10   0.000       0.000    
   4   8.0000E-10  5.0000E-10  1.0000E-10  1.0000E-10  1.0000E-10  1.0000E-10  1.0000E-10  1.0000E-10  2.0000E-10   0.000    
   5   8.0000E-10  5.0000E-10  1.0000E-10  1.0000E-10  1.0000E-10  1.0000E-10  1.0000E-10  1.0000E-10  1.0000E-10  1.0000E-10
   6   8.0000E-10  5.0000E-10  5.0000E-10  2.0000E-10  2.0000E-10  1.0000E-10  1.0000E-10  1.0000E-10  1.0000E-10  5.0000E-10
   7   8.0000E-10  5.0000E-10  5.0000E-10  2.0000E-10  2.0000E-10  1.0000E-10  1.0000E-10  2.0000E-10  2.0000E-10   0.000    
   8    0.000      5.0000E-10  5.0000E-10  2.0000E-10  2.0000E-10  1.0000E-10  1.0000E-10  2.0000E-10  5.0000E-10   0.000    
   9    0.000      5.0000E-10  5.0000E-10  2.0000E-10  2.0000E-10  1.0000E-10  1.0000E-10  2.0000E-10  5.0000E-10   0.000    
  10    0.000      5.0000E-10  5.0000E-10  2.0000E-10  2.0000E-10  1.0000E-10  1.0000E-10  2.0000E-10  5.0000E-10  8.0000E-10
  11    0.000      1.0000E-10  1.0000E-10  1.0000E-10  1.0000E-10  1.0000E-10  1.0000E-10  2.0000E-10  5.0000E-10   0.000    
  12   1.0000E-10  1.0000E-10  1.0000E-10  1.0000E-10  1.0000E-10  1.0000E-10  1.0000E-10  1.0000E-10  2.0000E-10   0.000    
  13   1.0000E-10  1.0000E-10  2.0000E-10  2.0000E-10  2.0000E-10  2.0000E-10  2.0000E-10  1.0000E-10  1.0000E-10   0.000    
  14    0.000      2.0000E-10  5.0000E-10  5.0000E-10  5.0000E-10  5.0000E-10  5.0000E-10  2.0000E-10  1.0000E-10   0.000    
  15    0.000       0.000      8.0000E-10  8.0000E-10  8.0000E-10  8.0000E-10   0.000       0.000       0.000       0.000    

                  ET RATE =  5.000000E-10

 USING ET EXTINCTION DEPTH FROM PREVIOUS STRESS PERIOD. CURRENT PERIOD IS:      27

 USING EXTINCTION WATER CONTENT FROM PREVIOUS STRESS PERIOD. CURRENT PERIOD IS:      27

 USING AIR ENTRY PRESSURE FROM PREVIOUS STRESS PERIOD. CURRENT PERIOD IS:      27

 USING ROOT PRESSURE HEAD FROM PREVIOUS STRESS PERIOD. CURRENT PERIOD IS:      27

 USING ROOT ACTIVITY FROM PREVIOUS STRESS PERIOD. CURRENT PERIOD IS:      27

 PROCESSING AG STRESS PERIOD DATA

 READING AG STRESS PERIOD DATA

 READING IRRIGATION SEGMENT

 READING IRRIGATION WELL

 READING SUPPLEMENTAL WELL

 END PROCESSING AG STRESS PERIOD DATA OPTIONS
 
 SOLVING FOR HEAD 
                                                   Max.-Head-Change                         Max.-Flux-Residual
  Residual-Control   Outer-Iter.   Inner-Iter.     Column Row Layer    Maximum-Head-Change  Column Row Layer    Maximum-Flux-Residual          L2-NORM 
          0                 1           2             4    7     1       0.1133427031E-01       4    7    1         0.5947647159E+00      0.1443034617E+01
          0                 2           2             4    7     1      -0.1102518225E-02       4    7    1        -0.5947666006E-01      0.1443031667E+00
          0                 3           1             4    7     1       0.7507737846E-04       4    7    1         0.4163366212E-02      0.1010120013E-01

    ------------------------------------------------
       NWT REQUIRED            3 OUTER ITERATIONS 
       AND A TOTAL OF          5 INNER ITERATIONS.
    ------------------------------------------------

 NO OUTPUT CONTROL FOR STRESS PERIOD   27   TIME STEP    1
 
 SOLVING FOR HEAD 
                                                   Max.-Head-Change                         Max.-Flux-Residual
  Residual-Control   Outer-Iter.   Inner-Iter.     Column Row Layer    Maximum-Head-Change  Column Row Layer    Maximum-Flux-Residual          L2-NORM 
          0                 1           2             4    7     1       0.1122326189E-01       4    7    1         0.5889040263E+00      0.1430898504E+01
          0                 2           2             4    7     1      -0.1091720065E-02       4    7    1        -0.5889058653E-01      0.1430889429E+00
          0                 3           1             4    7     1       0.7434206442E-04       4    7    1         0.4122341089E-02      0.1001614947E-01

    ------------------------------------------------
       NWT REQUIRED            3 OUTER ITERATIONS 
       AND A TOTAL OF          5 INNER ITERATIONS.
    ------------------------------------------------

 NO OUTPUT CONTROL FOR STRESS PERIOD   27   TIME STEP    2
 
 SOLVING FOR HEAD 
                                                   Max.-Head-Change                         Max.-Flux-Residual
  Residual-Control   Outer-Iter.   Inner-Iter.     Column Row Layer    Maximum-Head-Change  Column Row Layer    Maximum-Flux-Residual          L2-NORM 
          0                 1           2             4    7     1       0.1111429259E-01       4    7    1         0.5831483812E+00      0.1446094148E+01
          0                 2           2             4    7     1      -0.1081120258E-02       4    7    1        -0.5831501756E-01      0.1444773086E+00
          0                 3           1             4    7     1       0.7362025769E-04       4    7    1         0.4082051299E-02      0.1010145217E-01

    ------------------------------------------------
       NWT REQUIRED            3 OUTER ITERATIONS 
       AND A TOTAL OF          5 INNER ITERATIONS.
    ------------------------------------------------

 NO OUTPUT CONTROL FOR STRESS PERIOD   27   TIME STEP    3
 
 SOLVING FOR HEAD 
                                                   Max.-Head-Change                         Max.-Flux-Residual
  Residual-Control   Outer-Iter.   Inner-Iter.     Column Row Layer    Maximum-Head-Change  Column Row Layer    Maximum-Flux-Residual          L2-NORM 
          0                 1           2             4    7     1       0.1100690189E-01       4    7    1         0.5774764574E+00      0.1431625942E+01
          0                 2           2             4    7     1      -0.1070674007E-02       4    7    1        -0.5774782084E-01      0.1430496496E+00
          0                 3           1             4    7     1       0.7290890730E-04       4    7    1         0.4042347554E-02      0.1000303508E-01

    ------------------------------------------------
       NWT REQUIRED            3 OUTER ITERATIONS 
       AND A TOTAL OF          5 INNER ITERATIONS.
    ------------------------------------------------

 NO OUTPUT CONTROL FOR STRESS PERIOD   27   TIME STEP    4
 
 SOLVING FOR HEAD 
                                                   Max.-Head-Change                         Max.-Flux-Residual
  Residual-Control   Outer-Iter.   Inner-Iter.     Column Row Layer    Maximum-Head-Change  Column Row Layer    Maximum-Flux-Residual          L2-NORM 
          0                 1           2             4    7     1       0.1090132193E-01       4    7    1         0.5719010515E+00      0.1417875815E+01
          0                 2           2             4    7     1      -0.1060403894E-02       4    7    1        -0.5719027606E-01      0.1416909036E+00
          0                 3           1             4    7     1       0.7220955127E-04       4    7    1         0.4003319425E-02      0.9909426431E-02

    ------------------------------------------------
       NWT REQUIRED            3 OUTER ITERATIONS 
       AND A TOTAL OF          5 INNER ITERATIONS.
    ------------------------------------------------

 NO OUTPUT CONTROL FOR STRESS PERIOD   27   TIME STEP    5
 
 SOLVING FOR HEAD 
                                                   Max.-Head-Change                         Max.-Flux-Residual
  Residual-Control   Outer-Iter.   Inner-Iter.     Column Row Layer    Maximum-Head-Change  Column Row Layer    Maximum-Flux-Residual          L2-NORM 
          0                 1           2             4    7     1       0.1079750348E-01       4    7    1         0.5664195299E+00      0.1404742546E+01
          0                 2           2             4    7     1      -0.1050305130E-02       4    7    1        -0.5664211984E-01      0.1403920000E+00
          0                 3           1             4    7     1       0.7152186359E-04       4    7    1         0.3964948514E-02      0.9819929681E-02

    ------------------------------------------------
       NWT REQUIRED            3 OUTER ITERATIONS 
       AND A TOTAL OF          5 INNER ITERATIONS.
    ------------------------------------------------

 NO OUTPUT CONTROL FOR STRESS PERIOD   27   TIME STEP    6
 
 SOLVING FOR HEAD 
                                                   Max.-Head-Change                         Max.-Flux-Residual
  Residual-Control   Outer-Iter.   Inner-Iter.     Column Row Layer    Maximum-Head-Change  Column Row Layer    Maximum-Flux-Residual          L2-NORM 
          0                 1           2             4    7     1       0.1069513109E-01       4    7    1         0.5610146687E+00      0.1392160568E+01
          0                 2           2             4    7     1      -0.1040347029E-02       4    7    1        -0.5610162975E-01      0.1391456795E+00
          0                 3           1             4    7     1       0.7084375455E-04       4    7    1         0.3927114235E-02      0.9733804829E-02

    ------------------------------------------------
       NWT REQUIRED            3 OUTER ITERATIONS 
       AND A TOTAL OF          5 INNER ITERATIONS.
    ------------------------------------------------

 NO OUTPUT CONTROL FOR STRESS PERIOD   27   TIME STEP    7
 
 SOLVING FOR HEAD 
                                                   Max.-Head-Change                         Max.-Flux-Residual
  Residual-Control   Outer-Iter.   Inner-Iter.     Column Row Layer    Maximum-Head-Change  Column Row Layer    Maximum-Flux-Residual          L2-NORM 
          0                 1           2             4    7     1       0.1059457330E-01       4    7    1         0.5557067897E+00      0.1380054650E+01
          0                 2           2             4    7     1      -0.1030565443E-02       4    7    1        -0.5557083806E-01      0.1379454127E+00
          0                 3           1             4    7     1       0.7017766520E-04       4    7    1         0.3889958857E-02      0.9650576688E-02

    ------------------------------------------------
       NWT REQUIRED            3 OUTER ITERATIONS 
       AND A TOTAL OF          5 INNER ITERATIONS.
    ------------------------------------------------

 NO OUTPUT CONTROL FOR STRESS PERIOD   27   TIME STEP    8
 
 SOLVING FOR HEAD 
                                                   Max.-Head-Change                         Max.-Flux-Residual
  Residual-Control   Outer-Iter.   Inner-Iter.     Column Row Layer    Maximum-Head-Change  Column Row Layer    Maximum-Flux-Residual          L2-NORM 
          0                 1           2             4    7     1       0.1049551483E-01       4    7    1         0.5504783239E+00      0.1368383078E+01
          0                 2           2             4    7     1      -0.1020929699E-02       4    7    1        -0.5504798777E-01      0.1367872480E+00
          0                 3           1             4    7     1       0.6952150749E-04       4    7    1         0.3853359347E-02      0.9570583503E-02

    ------------------------------------------------
       NWT REQUIRED            3 OUTER ITERATIONS 
       AND A TOTAL OF          5 INNER ITERATIONS.
    ------------------------------------------------

 NO OUTPUT CONTROL FOR STRESS PERIOD   27   TIME STEP    9
 
 SOLVING FOR HEAD 
                                                   Max.-Head-Change                         Max.-Flux-Residual
  Residual-Control   Outer-Iter.   Inner-Iter.     Column Row Layer    Maximum-Head-Change  Column Row Layer    Maximum-Flux-Residual          L2-NORM 
          0                 1           2             4    7     1       0.1039791515E-01       4    7    1         0.5453275949E+00      0.1357081349E+01
          0                 2           2             4    7     1      -0.1011435859E-02       4    7    1        -0.5453291127E-01      0.1356643385E+00
          0                 3           1             4    7     1       0.6887501220E-04       4    7    1         0.3817303994E-02      0.9492364005E-02

    ------------------------------------------------
       NWT REQUIRED            3 OUTER ITERATIONS 
       AND A TOTAL OF          5 INNER ITERATIONS.
    ------------------------------------------------

 NO OUTPUT CONTROL FOR STRESS PERIOD   27   TIME STEP   10
 
 SOLVING FOR HEAD 
                                                   Max.-Head-Change                         Max.-Flux-Residual
  Residual-Control   Outer-Iter.   Inner-Iter.     Column Row Layer    Maximum-Head-Change  Column Row Layer    Maximum-Flux-Residual          L2-NORM 
          0                 1           2             4    7     1       0.1030187702E-01       4    7    1         0.5402598382E+00      0.1346126120E+01
          0                 2           2             4    7     1      -0.1002093915E-02       4    7    1        -0.5402613210E-01      0.1345754037E+00
          0                 3           1             4    7     1       0.6823886142E-04       4    7    1         0.3781829490E-02      0.9416817582E-02

    ------------------------------------------------
       NWT REQUIRED            3 OUTER ITERATIONS 
       AND A TOTAL OF          5 INNER ITERATIONS.
    ------------------------------------------------

 NO OUTPUT CONTROL FOR STRESS PERIOD   27   TIME STEP   11
 
 SOLVING FOR HEAD 
                                                   Max.-Head-Change                         Max.-Flux-Residual
  Residual-Control   Outer-Iter.   Inner-Iter.     Column Row Layer    Maximum-Head-Change  Column Row Layer    Maximum-Flux-Residual          L2-NORM 
          0                 1           2             4    7     1       0.1020722304E-01       4    7    1         0.5352657086E+00      0.1335474811E+01
          0                 2           2             4    7     1      -0.9928866138E-03       4    7    1        -0.5352671573E-01      0.1335157865E+00
          0                 3           1             4    7     1       0.6761187854E-04       4    7    1         0.3746870356E-02      0.9343186460E-02

    ------------------------------------------------
       NWT REQUIRED            3 OUTER ITERATIONS 
       AND A TOTAL OF          5 INNER ITERATIONS.
    ------------------------------------------------

 NO OUTPUT CONTROL FOR STRESS PERIOD   27   TIME STEP   12
 
 SOLVING FOR HEAD 
                                                   Max.-Head-Change                         Max.-Flux-Residual
  Residual-Control   Outer-Iter.   Inner-Iter.     Column Row Layer    Maximum-Head-Change  Column Row Layer    Maximum-Flux-Residual          L2-NORM 
          0                 1           2             4    7     1       0.1011419702E-01       4    7    1         0.5303580184E+00      0.1325112345E+01
          0                 2           2             4    7     1      -0.9838376705E-03       4    7    1        -0.5303594344E-01      0.1324842755E+00
          0                 3           1             4    7     1       0.6699567956E-04       4    7    1         0.3712516298E-02      0.9270424926E-02

    ------------------------------------------------
       NWT REQUIRED            3 OUTER ITERATIONS 
       AND A TOTAL OF          5 INNER ITERATIONS.
    ------------------------------------------------

 NO OUTPUT CONTROL FOR STRESS PERIOD   27   TIME STEP   13
 
 SOLVING FOR HEAD 
                                                   Max.-Head-Change                         Max.-Flux-Residual
  Residual-Control   Outer-Iter.   Inner-Iter.     Column Row Layer    Maximum-Head-Change  Column Row Layer    Maximum-Flux-Residual          L2-NORM 
          0                 1           2             4    7     1       0.1002234460E-01       4    7    1         0.5255127255E+00      0.1314993382E+01
          0                 2           2             4    7     1      -0.9749028876E-03       4    7    1        -0.5255141096E-01      0.1314762685E+00
          0                 3           1             4    7     1       0.6638725471E-04       4    7    1         0.3678599067E-02      0.9201198086E-02

    ------------------------------------------------
       NWT REQUIRED            3 OUTER ITERATIONS 
       AND A TOTAL OF          5 INNER ITERATIONS.
    ------------------------------------------------

 NO OUTPUT CONTROL FOR STRESS PERIOD   27   TIME STEP   14
 
 SOLVING FOR HEAD 
                                                   Max.-Head-Change                         Max.-Flux-Residual
  Residual-Control   Outer-Iter.   Inner-Iter.     Column Row Layer    Maximum-Head-Change  Column Row Layer    Maximum-Flux-Residual          L2-NORM 
          0                 1           2             4    7     1       0.9932052010E-02       4    7    1         0.5207502919E+00      0.1305112575E+01
          0                 2           2             4    7     1      -0.9661198348E-03       4    7    1        -0.5207516449E-01      0.1304917194E+00
          0                 3           1             4    7     1       0.6578916159E-04       4    7    1         0.3645261804E-02      0.9132624126E-02

    ------------------------------------------------
       NWT REQUIRED            3 OUTER ITERATIONS 
       AND A TOTAL OF          5 INNER ITERATIONS.
    ------------------------------------------------

 NO OUTPUT CONTROL FOR STRESS PERIOD   27   TIME STEP   15
 
 SOLVING FOR HEAD 
                                                   Max.-Head-Change                         Max.-Flux-Residual
  Residual-Control   Outer-Iter.   Inner-Iter.     Column Row Layer    Maximum-Head-Change  Column Row Layer    Maximum-Flux-Residual          L2-NORM 
          0                 1           2             4    7     1       0.9842869484E-02       4    7    1         0.5160467224E+00      0.1295435389E+01
          0                 2           2             4    7     1      -0.9574447619E-03       4    7    1        -0.5160480452E-01      0.1295268444E+00
          0                 3           1             4    7     1       0.6519842155E-04       4    7    1         0.3612336609E-02      0.9065251516E-02

    ------------------------------------------------
       NWT REQUIRED            3 OUTER ITERATIONS 
       AND A TOTAL OF          5 INNER ITERATIONS.
    ------------------------------------------------

 NO OUTPUT CONTROL FOR STRESS PERIOD   27   TIME STEP   16
 
 SOLVING FOR HEAD 
                                                   Max.-Head-Change                         Max.-Flux-Residual
  Residual-Control   Outer-Iter.   Inner-Iter.     Column Row Layer    Maximum-Head-Change  Column Row Layer    Maximum-Flux-Residual          L2-NORM 
          0                 1           2             4    7     1       0.9755183539E-02       4    7    1         0.5114227191E+00      0.1285965227E+01
          0                 2           2             4    7     1      -0.9489152674E-03       4    7    1        -0.5114240126E-01      0.1285823827E+00
          0                 3           1             4    7     1       0.6461759541E-04       4    7    1         0.3579968412E-02      0.8999467267E-02

    ------------------------------------------------
       NWT REQUIRED            3 OUTER ITERATIONS 
       AND A TOTAL OF          5 INNER ITERATIONS.
    ------------------------------------------------

 NO OUTPUT CONTROL FOR STRESS PERIOD   27   TIME STEP   17
 
 SOLVING FOR HEAD 
                                                   Max.-Head-Change                         Max.-Flux-Residual
  Residual-Control   Outer-Iter.   Inner-Iter.     Column Row Layer    Maximum-Head-Change  Column Row Layer    Maximum-Flux-Residual          L2-NORM 
          0                 1           2             4    7     1       0.9668680128E-02       4    7    1         0.5068616367E+00      0.1276671041E+01
          0                 2           2             4    7     1      -0.9405008024E-03       4    7    1        -0.5068629018E-01      0.1276550823E+00
          0                 3           1             4    7     1       0.6404460184E-04       4    7    1         0.3548040656E-02      0.8934718310E-02

    ------------------------------------------------
       NWT REQUIRED            3 OUTER ITERATIONS 
       AND A TOTAL OF          5 INNER ITERATIONS.
    ------------------------------------------------

 NO OUTPUT CONTROL FOR STRESS PERIOD   27   TIME STEP   18
 
 SOLVING FOR HEAD 
                                                   Max.-Head-Change                         Max.-Flux-Residual
  Residual-Control   Outer-Iter.   Inner-Iter.     Column Row Layer    Maximum-Head-Change  Column Row Layer    Maximum-Flux-Residual          L2-NORM 
          0                 1           2             4    7     1       0.9583606038E-02       4    7    1         0.5023765418E+00      0.1267559611E+01
          0                 2           2             4    7     1      -0.9322253726E-03       4    7    1        -0.5023777795E-01      0.1267458234E+00
          0                 3           1             4    7     1       0.6348107615E-04       4    7    1         0.3516644809E-02      0.8871257406E-02

    ------------------------------------------------
       NWT REQUIRED            3 OUTER ITERATIONS 
       AND A TOTAL OF          5 INNER ITERATIONS.
    ------------------------------------------------

 NO OUTPUT CONTROL FOR STRESS PERIOD   27   TIME STEP   19
 
 SOLVING FOR HEAD 
                                                   Max.-Head-Change                         Max.-Flux-Residual
  Residual-Control   Outer-Iter.   Inner-Iter.     Column Row Layer    Maximum-Head-Change  Column Row Layer    Maximum-Flux-Residual          L2-NORM 
          0                 1           2             4    7     1       0.9499522473E-02       4    7    1         0.4979435420E+00      0.1258606168E+01
          0                 2           2             4    7     1      -0.9240462949E-03       4    7    1        -0.4979447528E-01      0.1258518933E+00
          0                 3           1             4    7     1       0.6292411176E-04       4    7    1         0.3485613642E-02      0.8808765346E-02

    ------------------------------------------------
       NWT REQUIRED            3 OUTER ITERATIONS 
       AND A TOTAL OF          5 INNER ITERATIONS.
    ------------------------------------------------

 NO OUTPUT CONTROL FOR STRESS PERIOD   27   TIME STEP   20
 
 SOLVING FOR HEAD 
                                                   Max.-Head-Change                         Max.-Flux-Residual
  Residual-Control   Outer-Iter.   Inner-Iter.     Column Row Layer    Maximum-Head-Change  Column Row Layer    Maximum-Flux-Residual          L2-NORM 
          0                 1           2             4    7     1       0.9416816990E-02       4    7    1         0.4935839127E+00      0.1249809787E+01
          0                 2           2             4    7     1      -0.9160012677E-03       4    7    1        -0.4935850974E-01      0.1249736586E+00
          0                 3           1             4    7     1       0.6237627526E-04       4    7    1         0.3455096052E-02      0.8747467932E-02

    ------------------------------------------------
       NWT REQUIRED            3 OUTER ITERATIONS 
       AND A TOTAL OF          5 INNER ITERATIONS.
    ------------------------------------------------

 NO OUTPUT CONTROL FOR STRESS PERIOD   27   TIME STEP   21
 
 SOLVING FOR HEAD 
                                                   Max.-Head-Change                         Max.-Flux-Residual
  Residual-Control   Outer-Iter.   Inner-Iter.     Column Row Layer    Maximum-Head-Change  Column Row Layer    Maximum-Flux-Residual          L2-NORM 
          0                 1           2             4    7     1       0.9335182149E-02       4    7    1         0.4892810590E+00      0.1241152221E+01
          0                 2           2             4    7     1      -0.9080603858E-03       4    7    1        -0.4892822181E-01      0.1241091534E+00
          0                 3           1             4    7     1       0.6183553139E-04       4    7    1         0.3424975917E-02      0.8687075962E-02

    ------------------------------------------------
       NWT REQUIRED            3 OUTER ITERATIONS 
       AND A TOTAL OF          5 INNER ITERATIONS.
    ------------------------------------------------

 NO OUTPUT CONTROL FOR STRESS PERIOD   27   TIME STEP   22
 
 SOLVING FOR HEAD 
                                                   Max.-Head-Change                         Max.-Flux-Residual
  Residual-Control   Outer-Iter.   Inner-Iter.     Column Row Layer    Maximum-Head-Change  Column Row Layer    Maximum-Flux-Residual          L2-NORM 
          0                 1           2             4    7     1       0.9254734356E-02       4    7    1         0.4850410544E+00      0.1232639993E+01
          0                 2           2             4    7     1      -0.9002349728E-03       4    7    1        -0.4850421887E-01      0.1232587542E+00
          0                 3           1             4    7     1       0.6130265004E-04       4    7    1         0.3395295722E-02      0.8627619738E-02

    ------------------------------------------------
       NWT REQUIRED            3 OUTER ITERATIONS 
       AND A TOTAL OF          5 INNER ITERATIONS.
    ------------------------------------------------

 NO OUTPUT CONTROL FOR STRESS PERIOD   27   TIME STEP   23
 
 SOLVING FOR HEAD 
                                                   Max.-Head-Change                         Max.-Flux-Residual
  Residual-Control   Outer-Iter.   Inner-Iter.     Column Row Layer    Maximum-Head-Change  Column Row Layer    Maximum-Flux-Residual          L2-NORM 
          0                 1           2             4    7     1       0.9175443442E-02       4    7    1         0.4808625965E+00      0.1224253983E+01
          0                 2           2             4    7     1      -0.8925220933E-03       4    7    1        -0.4808637069E-01      0.1224209985E+00
          0                 3           1             4    7     1       0.6077743146E-04       4    7    1         0.3366046342E-02      0.8569032442E-02

    ------------------------------------------------
       NWT REQUIRED            3 OUTER ITERATIONS 
       AND A TOTAL OF          5 INNER ITERATIONS.
    ------------------------------------------------

 NO OUTPUT CONTROL FOR STRESS PERIOD   27   TIME STEP   24
 
 SOLVING FOR HEAD 
                                                   Max.-Head-Change                         Max.-Flux-Residual
  Residual-Control   Outer-Iter.   Inner-Iter.     Column Row Layer    Maximum-Head-Change  Column Row Layer    Maximum-Flux-Residual          L2-NORM 
          0                 1           2             4    7     1       0.9097284563E-02       4    7    1         0.4767441210E+00      0.1215997931E+01
          0                 2           2             4    7     1      -0.8849193306E-03       4    7    1        -0.4767452079E-01      0.1215961058E+00
          0                 3           1             4    7     1       0.6025971176E-04       4    7    1         0.3337216856E-02      0.8511364561E-02

    ------------------------------------------------
       NWT REQUIRED            3 OUTER ITERATIONS 
       AND A TOTAL OF          5 INNER ITERATIONS.
    ------------------------------------------------

 NO OUTPUT CONTROL FOR STRESS PERIOD   27   TIME STEP   25
 
 SOLVING FOR HEAD 
                                                   Max.-Head-Change                         Max.-Flux-Residual
  Residual-Control   Outer-Iter.   Inner-Iter.     Column Row Layer    Maximum-Head-Change  Column Row Layer    Maximum-Flux-Residual          L2-NORM 
          0                 1           2             4    7     1       0.9020094473E-02       4    7    1         0.4726770012E+00      0.1207857206E+01
          0                 2           2             4    7     1      -0.8774108064E-03       4    7    1        -0.4726780653E-01      0.1207827338E+00
          0                 3           1             4    7     1       0.5974840992E-04       4    7    1         0.3308746882E-02      0.8454596194E-02

    ------------------------------------------------
       NWT REQUIRED            3 OUTER ITERATIONS 
       AND A TOTAL OF          5 INNER ITERATIONS.
    ------------------------------------------------

 NO OUTPUT CONTROL FOR STRESS PERIOD   27   TIME STEP   26
 
 SOLVING FOR HEAD 
                                                   Max.-Head-Change                         Max.-Flux-Residual
  Residual-Control   Outer-Iter.   Inner-Iter.     Column Row Layer    Maximum-Head-Change  Column Row Layer    Maximum-Flux-Residual          L2-NORM 
          0                 1           2             4    7     1       0.8944126248E-02       4    7    1         0.4686747889E+00      0.1199837688E+01
          0                 2           2             4    7     1      -0.8700211368E-03       4    7    1        -0.4686758309E-01      0.1199811780E+00
          0                 3           1             4    7     1       0.5924520077E-04       4    7    1         0.3280731244E-02      0.8398427231E-02

    ------------------------------------------------
       NWT REQUIRED            3 OUTER ITERATIONS 
       AND A TOTAL OF          5 INNER ITERATIONS.
    ------------------------------------------------

 NO OUTPUT CONTROL FOR STRESS PERIOD   27   TIME STEP   27
 
 SOLVING FOR HEAD 
                                                   Max.-Head-Change                         Max.-Flux-Residual
  Residual-Control   Outer-Iter.   Inner-Iter.     Column Row Layer    Maximum-Head-Change  Column Row Layer    Maximum-Flux-Residual          L2-NORM 
          0                 1           2             4    7     1       0.8869080765E-02       4    7    1         0.4647212509E+00      0.1191932138E+01
          0                 2           2             4    7     1      -0.8627212257E-03       4    7    1        -0.4647222712E-01      0.1191911168E+00
          0                 3           1             4    7     1       0.5874810477E-04       4    7    1         0.3253056359E-02      0.8343199074E-02

    ------------------------------------------------
       NWT REQUIRED            3 OUTER ITERATIONS 
       AND A TOTAL OF          5 INNER ITERATIONS.
    ------------------------------------------------

 NO OUTPUT CONTROL FOR STRESS PERIOD   27   TIME STEP   28
 
 SOLVING FOR HEAD 
                                                   Max.-Head-Change                         Max.-Flux-Residual
  Residual-Control   Outer-Iter.   Inner-Iter.     Column Row Layer    Maximum-Head-Change  Column Row Layer    Maximum-Flux-Residual          L2-NORM 
          0                 1           2             4    7     1       0.8795075975E-02       4    7    1         0.4608228945E+00      0.1184138548E+01
          0                 2           2             4    7     1      -0.8555225464E-03       4    7    1        -0.4608238939E-01      0.1184120714E+00
          0                 3           1             4    7     1       0.5825790118E-04       4    7    1         0.3225767704E-02      0.8288692070E-02

    ------------------------------------------------
       NWT REQUIRED            3 OUTER ITERATIONS 
       AND A TOTAL OF          5 INNER ITERATIONS.
    ------------------------------------------------

 NO OUTPUT CONTROL FOR STRESS PERIOD   27   TIME STEP   29
 
 SOLVING FOR HEAD 
                                                   Max.-Head-Change                         Max.-Flux-Residual
  Residual-Control   Outer-Iter.   Inner-Iter.     Column Row Layer    Maximum-Head-Change  Column Row Layer    Maximum-Flux-Residual          L2-NORM 
          0                 1           2             4    7     1       0.8722088636E-02       4    7    1         0.4569784965E+00      0.1176439217E+01
          0                 2           2             4    7     1      -0.8484228381E-03       4    7    1        -0.4569794753E-01      0.1176424480E+00
          0                 3           1             4    7     1       0.5777443732E-04       4    7    1         0.3198856774E-02      0.8234830141E-02

    ------------------------------------------------
       NWT REQUIRED            3 OUTER ITERATIONS 
       AND A TOTAL OF          5 INNER ITERATIONS.
    ------------------------------------------------

 NO OUTPUT CONTROL FOR STRESS PERIOD   27   TIME STEP   30



 STREAM LISTING     PERIOD     27   STEP       30

 LAYER ROW COL. STREAM  RCH.  FLOW INTO     FLOW TO   FLOW OUT OF   OVRLND.     DIRECT     STREAM       STREAM     STREAM     STREAM   STREAMBED  STREAMBED
                SEG.NO.  NO.  STRM. RCH.    AQUIFER    STRM. RCH.    RUNOFF     PRECIP       ET          HEAD       DEPTH      WIDTH   CONDCTNC.   GRADIENT

   1    1    1     1     1    1.5750E+01  1.9239E-01   1.5557E+01  0.000E+00  0.000E+00  0.000E+00  1.09407E+03  1.025E+00  1.062E+01  4.780E-02  1.342E+00
   1    2    2     1     2    1.5557E+01  2.9659E-01   1.5261E+01  0.000E+00  0.000E+00  0.000E+00  1.08908E+03  1.020E+00  1.054E+01  7.378E-02  1.340E+00
   1    3    3     1     3    1.5261E+01  2.5163E-01   1.5009E+01  0.000E+00  0.000E+00  0.000E+00  1.08343E+03  1.015E+00  1.045E+01  6.268E-02  1.338E+00
   1    3    4     1     4    1.5009E+01  2.3063E-01   1.4778E+01  0.000E+00  0.000E+00  0.000E+00  1.07842E+03  1.010E+00  1.036E+01  5.751E-02  1.337E+00
   1    4    5     2     1    1.2778E+01  2.9653E-01   1.2482E+01  0.000E+00  0.000E+00  0.000E+00  1.07274E+03  8.017E-01  1.200E+01  7.800E-02  1.267E+00
   1    5    6     2     2    1.2482E+01  2.2750E-01   1.2254E+01  0.000E+00  0.000E+00  0.000E+00  1.06730E+03  7.916E-01  1.200E+01  6.000E-02  1.264E+00
   1    6    6     2     3    1.2254E+01  2.2697E-01   1.2027E+01  0.000E+00  0.000E+00  0.000E+00  1.06258E+03  7.829E-01  1.200E+01  6.000E-02  1.261E+00
   1    7    6     2     4    1.2027E+01  2.2644E-01   1.1801E+01  0.000E+00  0.000E+00  0.000E+00  1.05785E+03  7.741E-01  1.200E+01  6.000E-02  1.258E+00
   1    8    6     2     5    1.1801E+01  2.2591E-01   1.1575E+01  0.000E+00  0.000E+00  0.000E+00  1.05312E+03  7.652E-01  1.200E+01  6.000E-02  1.255E+00
   1    3    5     3     1    2.0000E+00  2.8252E-01   1.7175E+00  0.000E+00  0.000E+00  0.000E+00  1.07555E+03  1.909E+00  9.636E+00  7.227E-02  1.955E+00
   1    3    6     3     2    1.7175E+00  2.4905E-01   1.4684E+00  0.000E+00  0.000E+00  0.000E+00  1.07264E+03  1.727E+00  8.909E+00  6.682E-02  1.864E+00
   1    3    7     3     3    1.4684E+00  1.9718E-01   1.2712E+00  0.000E+00  0.000E+00  0.000E+00  1.06987E+03  1.555E+00  8.218E+00  5.547E-02  1.777E+00
   1    4    8     3     4    1.2712E+00  2.2567E-01   1.0456E+00  0.000E+00  0.000E+00  0.000E+00  1.06682E+03  1.364E+00  7.455E+00  6.709E-02  1.682E+00
   1    5    8     3     5    1.0456E+00  1.5790E-01   8.8768E-01  0.000E+00  0.000E+00  0.000E+00  1.06362E+03  1.164E+00  6.655E+00  4.991E-02  1.582E+00
   1    6    8     3     6    8.8768E-01  5.5980E-02   8.3170E-01  0.000E+00  0.000E+00  0.000E+00  1.06158E+03  1.036E+00  6.145E+00  1.844E-02  1.518E+00
   1    5   10     4     1    1.0000E+01  9.0919E-02   9.9091E+00  0.000E+00  0.000E+00  0.000E+00  1.07836E+03  6.368E-01  1.000E+01  2.500E-02  1.212E+00
   1    5    9     4     2    9.9091E+00  1.8158E-01   9.7275E+00  0.000E+00  0.000E+00  0.000E+00  1.07154E+03  6.315E-01  1.000E+01  5.000E-02  1.211E+00
   1    6    8     4     3    9.7275E+00  1.2689E-01   9.6006E+00  0.000E+00  0.000E+00  0.000E+00  1.06381E+03  6.256E-01  1.000E+01  3.500E-02  1.209E+00
   1    6    8     5     1    1.0432E+01  2.2686E-01   1.0205E+01  0.000E+00  0.000E+00  0.000E+00  1.05868E+03  6.790E-01  1.542E+01  6.166E-02  1.226E+00
   1    7    7     5     2    1.0205E+01  2.7894E-01   9.9265E+00  0.000E+00  0.000E+00  0.000E+00  1.05417E+03  6.732E-01  1.519E+01  7.594E-02  1.224E+00
   1    8    7     5     3    9.9265E+00  1.9221E-01   9.7343E+00  0.000E+00  0.000E+00  0.000E+00  1.04992E+03  6.676E-01  1.497E+01  5.241E-02  1.223E+00
   1    8    6     5     4    9.7343E+00  1.3577E-01   9.5985E+00  0.000E+00  0.000E+00  0.000E+00  1.04691E+03  6.637E-01  1.482E+01  3.706E-02  1.221E+00
   1    9    6     6     1    2.1173E+01  2.4608E-01   2.0927E+01  0.000E+00  0.000E+00  0.000E+00  1.04383E+03  1.101E+00  1.200E+01  6.000E-02  1.367E+00
   1   10    7     6     2    2.0927E+01  2.4562E-01   2.0682E+01  0.000E+00  0.000E+00  0.000E+00  1.03928E+03  1.094E+00  1.200E+01  6.000E-02  1.365E+00
   1   11    7     6     3    2.0682E+01  2.4515E-01   2.0437E+01  0.000E+00  0.000E+00  0.000E+00  1.03472E+03  1.086E+00  1.200E+01  6.000E-02  1.362E+00
   1   12    7     6     4    2.0437E+01  2.4468E-01   2.0192E+01  0.000E+00  0.000E+00  0.000E+00  1.03017E+03  1.078E+00  1.200E+01  6.000E-02  1.359E+00
   1   13    7     6     5    2.0192E+01  6.3407E-03   2.0186E+01  0.000E+00  0.000E+00  0.000E+00  1.02698E+03  1.074E+00  1.200E+01  2.400E-02  8.806E-02
   1   14    9     7     1    1.5000E+02  1.3766E+00   1.4862E+02  0.000E+00  0.000E+00  0.000E+00  1.03987E+03  2.288E+00  5.529E+01  5.593E-01  8.204E-01
   1   13    8     7     2    1.4862E+02  1.9516E+00   1.4667E+02  0.000E+00  0.000E+00  0.000E+00  1.03478E+03  2.279E+00  5.525E+01  6.147E-01  1.058E+00
   1   13    7     7     3    1.4667E+02  1.6581E+00   1.4501E+02  0.000E+00  0.000E+00  0.000E+00  1.02969E+03  2.269E+00  5.521E+01  5.584E-01  9.898E-01
   1   13    6     8     1    1.6520E+02  1.0778E+00   1.6412E+02  0.000E+00  0.000E+00  0.000E+00  1.02479E+03  2.917E+00  4.230E+01  4.310E-01  8.335E-01
   1   13    5     8     2    1.6412E+02  3.2126E-01   1.6380E+02  0.000E+00  0.000E+00  0.000E+00  1.01854E+03  2.912E+00  4.223E+01  4.303E-01  2.488E-01
   1   13    4     8     3    1.6380E+02 -1.9429E+00   1.6574E+02  0.000E+00  0.000E+00  0.000E+00  1.01229E+03  2.918E+00  4.231E+01  4.311E+00 -1.502E-01
   1   13    3     8     4    1.6574E+02 -3.3957E+00   1.6914E+02  0.000E+00  0.000E+00  0.000E+00  1.00606E+03  2.935E+00  4.256E+01  4.337E+00 -2.610E-01
   1   13    2     8     5    1.6914E+02 -2.4952E+00   1.7163E+02  0.000E+00  0.000E+00  0.000E+00  9.99830E+02  2.955E+00  4.284E+01  4.366E+00 -1.905E-01
   1   13    1     8     6    1.7163E+02 -1.9394E+00   1.7357E+02  0.000E+00  0.000E+00  0.000E+00  9.94844E+02  2.969E+00  4.305E+01  2.632E+00 -2.456E-01
   1    8    6     9     1    0.0000E+00  0.0000E+00   0.0000E+00  0.000E+00  0.000E+00  0.000E+00  1.07875E+03  0.000E+00  4.000E+00  0.000E+00  1.000E+00
   1    8    5     9     2    0.0000E+00  0.0000E+00   0.0000E+00  0.000E+00  0.000E+00  0.000E+00  1.07825E+03  0.000E+00  4.000E+00  0.000E+00  1.000E+00





UNSATURATED ZONE PACKAGE VOLUMETRIC BUDGET FOR  TIME STEP    30 STRESS PERIOD   27
  ------------------------------------------------------------------------------



     CUMULATIVE VOLUMES      L**3       RATES FOR THIS TIME STEP      L**3/T
     ------------------                 ------------------------

           IN:                                      IN:
           ---                                      ---
        INFILTRATION =   868772638.6606          INFILTRATION =           0.8475

          OUT:                                     OUT:
          ----                                     ----
              UZF ET =   863996071.2256                UZF ET =           0.7500
        UZF RECHARGE =       73224.0000          UZF RECHARGE =       0.0000E+00

            IN - OUT =     4703343.4350              IN - OUT =       9.7500E-02

          STORAGE:                                 STORAGE:
          --------                                 --------
      STORAGE CHANGE =     4703342.1155        STORAGE CHANGE =       9.7500E-02

 PERCENT DISCREPANCY IS DIFFERENCE BETWEEN IN-OUT MINUS CHANGE IN STORAGE
 DIVIDED BY THE AVERAGE OF IN AND OUT TIMES 100

 PERCENT DISCREPANCY =           0.00     PERCENT DISCREPANCY =           0.00






1
  VOLUMETRIC BUDGET FOR AGRICULTURAL FIELDS AT  END OF TIME STEP   30, STRESS PERIOD  27
  ------------------------------------------------------------------------------

     CUMULATIVE VOLUMES      L**3       RATES FOR THIS TIME STEP      L**3/T
     ------------------                 ------------------------

           IN:                                      IN:
           ---                                      ---
           AG WELLS      =   428269280.0000             AG WELLS      =           0.0000
      DIVERSION SEGMENTS =   382511616.0000        DIVERSION SEGMENTS =           0.0000
           GW IRRIGATION =           0.0000             GW IRRIGATION =           0.0000
           SW IRRIGATION =           0.0000             SW IRRIGATION =           0.0000
        SYSTEM LOSSES GW =           0.0000          SYSTEM LOSSES GW =           0.0000
        SYSTEM LOSSES SW =           0.0000          SYSTEM LOSSES SW =           0.0000

                TOTAL IN =   810780928.0000                  TOTAL IN =           0.0000

          OUT:                                     OUT:
          ----                                     ----
           AG WELLS      =           0.0000             AG WELLS      =           0.0000
      DIVERSION SEGMENTS =           0.0000        DIVERSION SEGMENTS =           0.0000
           GW IRRIGATION =   428269280.0000             GW IRRIGATION =           0.0000
           SW IRRIGATION =   382519104.0000             SW IRRIGATION =           0.0000
        SYSTEM LOSSES GW =           0.0000          SYSTEM LOSSES GW =           0.0000
        SYSTEM LOSSES SW =           0.0000          SYSTEM LOSSES SW =           0.0000

               TOTAL OUT =   810788352.0000                 TOTAL OUT =           0.0000

                IN - OUT =       -7424.0000                  IN - OUT =           0.0000

     PERCENT DISCREPANCY =          -0.00         PERCENT DISCREPANCY =           0.00



1
  VOLUMETRIC BUDGET FOR ENTIRE MODEL AT END OF TIME STEP   30, STRESS PERIOD  27
  ------------------------------------------------------------------------------

     CUMULATIVE VOLUMES      L**3       RATES FOR THIS TIME STEP      L**3/T
     ------------------                 ------------------------

           IN:                                      IN:
           ---                                      ---
             STORAGE     =   630295744.0000               STORAGE     =           2.6359
       CONSTANT HEAD     =           0.0000         CONSTANT HEAD     =           0.0000
     HEAD DEP BOUNDS     =    19725724.0000       HEAD DEP BOUNDS     =           0.2885
      STREAM LEAKAGE     =   799787712.0000        STREAM LEAKAGE     =          11.9493
        UZF RECHARGE     =       73223.9531          UZF RECHARGE     =           0.0000
               GW ET     =           0.0000                 GW ET     =           0.0000
     SURFACE LEAKAGE     =           0.0000       SURFACE LEAKAGE     =           0.0000
           AG WELLS      =           0.0000             AG WELLS      =           0.0000

                TOTAL IN =  1449882368.0000                  TOTAL IN =          14.8737

          OUT:                                     OUT:
          ----                                     ----
             STORAGE     =   302510112.0000               STORAGE     =           4.8130
       CONSTANT HEAD     =           0.0000         CONSTANT HEAD     =           0.0000
     HEAD DEP BOUNDS     =    19704876.0000       HEAD DEP BOUNDS     =           0.2881
      STREAM LEAKAGE     =   699406720.0000        STREAM LEAKAGE     =           9.7732
        UZF RECHARGE     =           0.0000          UZF RECHARGE     =           0.0000
               GW ET     =           0.0000                 GW ET     =           0.0000
     SURFACE LEAKAGE     =           0.0000       SURFACE LEAKAGE     =           0.0000
           AG WELLS      =   428269280.0000             AG WELLS      =           0.0000

               TOTAL OUT =  1449890944.0000                 TOTAL OUT =          14.8743

                IN - OUT =       -8576.0000                  IN - OUT =      -6.1893E-04

     PERCENT DISCREPANCY =          -0.00         PERCENT DISCREPANCY =          -0.00






         TIME SUMMARY AT END OF TIME STEP   30 IN STRESS PERIOD   27
                    SECONDS     MINUTES      HOURS       DAYS        YEARS
                    -----------------------------------------------------------
   TIME STEP LENGTH  87667.      1461.1      24.352      1.0147     2.77799E-03
 STRESS PERIOD TIME 2.63000E+06  43833.      730.56      30.440     8.33397E-02
         TOTAL TIME 6.84668E+07 1.14111E+06  19019.      792.44      2.1696    
1
1
                            STRESS PERIOD NO.   28, LENGTH =   2630000.    
                            -----------------------------------------------

                              NUMBER OF TIME STEPS =    30

                               MULTIPLIER FOR DELT =     1.000

                            INITIAL TIME STEP SIZE =   87666.66    

 REUSING NON-PARAMETER GHB CELLS FROM LAST STRESS PERIOD

      2 GHB CELLS

 REUSING STREAM SEGMENT DATA FROM LAST STRESS PERIOD



            AREAL INFILTRATION RATE
 READING ON UNIT   19 WITH FORMAT: (FREE)              

            1           2           3           4           5           6           7           8           9          10
 ........................................................................................................................
   1   1.0000E-10  2.0000E-10   0.000       0.000       0.000       0.000       0.000       0.000       0.000       0.000    
   2   2.0000E-10  1.0000E-10  2.0000E-10   0.000       0.000      8.0000E-10  8.0000E-10  5.0000E-10   0.000       0.000    
   3    0.000      5.0000E-10  1.0000E-10  1.0000E-10  8.0000E-10  8.0000E-10  5.0000E-10  5.0000E-10   0.000       0.000    
   4   8.0000E-10  5.0000E-10  1.0000E-10  1.0000E-10  1.0000E-10  1.0000E-10  1.0000E-10  1.0000E-10  2.0000E-10   0.000    
   5   8.0000E-10  5.0000E-10  1.0000E-10  1.0000E-10  1.0000E-10  1.0000E-10  1.0000E-10  1.0000E-10  1.0000E-10  1.0000E-10
   6   8.0000E-10  5.0000E-10  5.0000E-10  2.0000E-10  2.0000E-10  1.0000E-10  1.0000E-10  1.0000E-10  1.0000E-10  5.0000E-10
   7   8.0000E-10  5.0000E-10  5.0000E-10  2.0000E-10  2.0000E-10  1.0000E-10  1.0000E-10  2.0000E-10  2.0000E-10   0.000    
   8    0.000      5.0000E-10  5.0000E-10  2.0000E-10  2.0000E-10  1.0000E-10  1.0000E-10  2.0000E-10  5.0000E-10   0.000    
   9    0.000      5.0000E-10  5.0000E-10  2.0000E-10  2.0000E-10  1.0000E-10  1.0000E-10  2.0000E-10  5.0000E-10   0.000    
  10    0.000      5.0000E-10  5.0000E-10  2.0000E-10  2.0000E-10  1.0000E-10  1.0000E-10  2.0000E-10  5.0000E-10  8.0000E-10
  11    0.000      1.0000E-10  1.0000E-10  1.0000E-10  1.0000E-10  1.0000E-10  1.0000E-10  2.0000E-10  5.0000E-10   0.000    
  12   1.0000E-10  1.0000E-10  1.0000E-10  1.0000E-10  1.0000E-10  1.0000E-10  1.0000E-10  1.0000E-10  2.0000E-10   0.000    
  13   1.0000E-10  1.0000E-10  2.0000E-10  2.0000E-10  2.0000E-10  2.0000E-10  2.0000E-10  1.0000E-10  1.0000E-10   0.000    
  14    0.000      2.0000E-10  5.0000E-10  5.0000E-10  5.0000E-10  5.0000E-10  5.0000E-10  2.0000E-10  1.0000E-10   0.000    
  15    0.000       0.000      8.0000E-10  8.0000E-10  8.0000E-10  8.0000E-10   0.000       0.000       0.000       0.000    

                  ET RATE =  5.000000E-10

 USING ET EXTINCTION DEPTH FROM PREVIOUS STRESS PERIOD. CURRENT PERIOD IS:      28

 USING EXTINCTION WATER CONTENT FROM PREVIOUS STRESS PERIOD. CURRENT PERIOD IS:      28

 USING AIR ENTRY PRESSURE FROM PREVIOUS STRESS PERIOD. CURRENT PERIOD IS:      28

 USING ROOT PRESSURE HEAD FROM PREVIOUS STRESS PERIOD. CURRENT PERIOD IS:      28

 USING ROOT ACTIVITY FROM PREVIOUS STRESS PERIOD. CURRENT PERIOD IS:      28

 PROCESSING AG STRESS PERIOD DATA

 READING AG STRESS PERIOD DATA

 READING IRRIGATION SEGMENT

 READING IRRIGATION WELL

 READING SUPPLEMENTAL WELL

 END PROCESSING AG STRESS PERIOD DATA OPTIONS
 
 SOLVING FOR HEAD 
                                                   Max.-Head-Change                         Max.-Flux-Residual
  Residual-Control   Outer-Iter.   Inner-Iter.     Column Row Layer    Maximum-Head-Change  Column Row Layer    Maximum-Flux-Residual          L2-NORM 
          0                 1           2             4    7     1       0.8650166057E-02       4    7    1         0.4531868518E+00      0.1232014201E+01
          0                 2           2             4    7     1      -0.8414267017E-03       4    7    1        -0.4531878101E-01      0.1229463595E+00
          0                 3           1             4    7     1       0.5729802681E-04       4    7    1         0.3172315131E-02      0.8583052222E-02

    ------------------------------------------------
       NWT REQUIRED            3 OUTER ITERATIONS 
       AND A TOTAL OF          5 INNER ITERATIONS.
    ------------------------------------------------

 NO OUTPUT CONTROL FOR STRESS PERIOD   28   TIME STEP    1
 
 SOLVING FOR HEAD 
                                                   Max.-Head-Change                         Max.-Flux-Residual
  Residual-Control   Outer-Iter.   Inner-Iter.     Column Row Layer    Maximum-Head-Change  Column Row Layer    Maximum-Flux-Residual          L2-NORM 
          0                 1           2             4    7     1       0.8579324871E-02       4    7    1         0.4494504144E+00      0.1293611428E+01
          0                 2           2             4    7     1      -0.8345357562E-03       4    7    1        -0.4494513526E-01      0.1288040516E+00
          0                 3           1             4    7     1       0.5682877874E-04       4    7    1         0.3146159937E-02      0.8965008287E-02

    ------------------------------------------------
       NWT REQUIRED            3 OUTER ITERATIONS 
       AND A TOTAL OF          5 INNER ITERATIONS.
    ------------------------------------------------

 NO OUTPUT CONTROL FOR STRESS PERIOD   28   TIME STEP    2
 
 SOLVING FOR HEAD 
                                                   Max.-Head-Change                         Max.-Flux-Residual
  Residual-Control   Outer-Iter.   Inner-Iter.     Column Row Layer    Maximum-Head-Change  Column Row Layer    Maximum-Flux-Residual          L2-NORM 
          0                 1           2             4    7     1       0.8509532151E-02       4    7    1         0.4457700462E+00      0.1271793833E+01
          0                 2           2             4    7     1      -0.8277467990E-03       4    7    1        -0.4457709650E-01      0.1266989488E+00
          0                 3           1             4    7     1       0.5636647643E-04       4    7    1         0.3120397238E-02      0.8825347652E-02

    ------------------------------------------------
       NWT REQUIRED            3 OUTER ITERATIONS 
       AND A TOTAL OF          5 INNER ITERATIONS.
    ------------------------------------------------

 NO OUTPUT CONTROL FOR STRESS PERIOD   28   TIME STEP    3
 
 SOLVING FOR HEAD 
                                                   Max.-Head-Change                         Max.-Flux-Residual
  Residual-Control   Outer-Iter.   Inner-Iter.     Column Row Layer    Maximum-Head-Change  Column Row Layer    Maximum-Flux-Residual          L2-NORM 
          0                 1           2             4    7     1       0.8440763022E-02       4    7    1         0.4421440394E+00      0.1252135644E+01
          0                 2           2             4    7     1      -0.8210574096E-03       4    7    1        -0.4421449390E-01      0.1247989255E+00
          0                 3           1             4    7     1       0.5591095411E-04       4    7    1         0.3095015057E-02      0.8697994908E-02

    ------------------------------------------------
       NWT REQUIRED            3 OUTER ITERATIONS 
       AND A TOTAL OF          5 INNER ITERATIONS.
    ------------------------------------------------

 NO OUTPUT CONTROL FOR STRESS PERIOD   28   TIME STEP    4
 
 SOLVING FOR HEAD 
                                                   Max.-Head-Change                         Max.-Flux-Residual
  Residual-Control   Outer-Iter.   Inner-Iter.     Column Row Layer    Maximum-Head-Change  Column Row Layer    Maximum-Flux-Residual          L2-NORM 
          0                 1           2             4    7     1       0.8372853477E-02       4    7    1         0.4385637643E+00      0.1234334068E+01
          0                 2           2             4    7     1      -0.8144516351E-03       4    7    1        -0.4385646454E-01      0.1230753023E+00
          0                 3           1             4    7     1       0.5546112543E-04       4    7    1         0.3069953010E-02      0.8582309208E-02

    ------------------------------------------------
       NWT REQUIRED            3 OUTER ITERATIONS 
       AND A TOTAL OF          5 INNER ITERATIONS.
    ------------------------------------------------

 NO OUTPUT CONTROL FOR STRESS PERIOD   28   TIME STEP    5
 
 SOLVING FOR HEAD 
                                                   Max.-Head-Change                         Max.-Flux-Residual
  Residual-Control   Outer-Iter.   Inner-Iter.     Column Row Layer    Maximum-Head-Change  Column Row Layer    Maximum-Flux-Residual          L2-NORM 
          0                 1           2             4    7     1       0.8306056870E-02       4    7    1         0.4350427371E+00      0.1218136673E+01
          0                 2           2             4    7     1      -0.8079541198E-03       4    7    1        -0.4350436001E-01      0.1215044160E+00
          0                 3           1             4    7     1       0.5501866889E-04       4    7    1         0.3045305692E-02      0.8476929451E-02

    ------------------------------------------------
       NWT REQUIRED            3 OUTER ITERATIONS 
       AND A TOTAL OF          5 INNER ITERATIONS.
    ------------------------------------------------

 NO OUTPUT CONTROL FOR STRESS PERIOD   28   TIME STEP    6
 
 SOLVING FOR HEAD 
                                                   Max.-Head-Change                         Max.-Flux-Residual
  Residual-Control   Outer-Iter.   Inner-Iter.     Column Row Layer    Maximum-Head-Change  Column Row Layer    Maximum-Flux-Residual          L2-NORM 
          0                 1           2             4    7     1       0.8240202950E-02       4    7    1         0.4315720741E+00      0.1203319176E+01
          0                 2           2             4    7     1      -0.8015483035E-03       4    7    1        -0.4315729198E-01      0.1200652176E+00
          0                 3           1             4    7     1       0.5458245686E-04       4    7    1         0.3021010941E-02      0.8380031405E-02

    ------------------------------------------------
       NWT REQUIRED            3 OUTER ITERATIONS 
       AND A TOTAL OF          5 INNER ITERATIONS.
    ------------------------------------------------

 NO OUTPUT CONTROL FOR STRESS PERIOD   28   TIME STEP    7
 
 SOLVING FOR HEAD 
                                                   Max.-Head-Change                         Max.-Flux-Residual
  Residual-Control   Outer-Iter.   Inner-Iter.     Column Row Layer    Maximum-Head-Change  Column Row Layer    Maximum-Flux-Residual          L2-NORM 
          0                 1           2             4    7     1       0.8175270793E-02       4    7    1         0.4281502880E+00      0.1189698966E+01
          0                 2           2             4    7     1      -0.7952321503E-03       4    7    1        -0.4281511167E-01      0.1187396722E+00
          0                 3           1             4    7     1       0.5415235088E-04       4    7    1         0.2997058325E-02      0.8290714073E-02

    ------------------------------------------------
       NWT REQUIRED            3 OUTER ITERATIONS 
       AND A TOTAL OF          5 INNER ITERATIONS.
    ------------------------------------------------

 NO OUTPUT CONTROL FOR STRESS PERIOD   28   TIME STEP    8
 
 SOLVING FOR HEAD 
                                                   Max.-Head-Change                         Max.-Flux-Residual
  Residual-Control   Outer-Iter.   Inner-Iter.     Column Row Layer    Maximum-Head-Change  Column Row Layer    Maximum-Flux-Residual          L2-NORM 
          0                 1           2             4    7     1       0.8111104428E-02       4    7    1         0.4247689534E+00      0.1177106273E+01
          0                 2           2             4    7     1      -0.7890015655E-03       4    7    1        -0.4247697655E-01      0.1175224306E+00
          0                 3           1             4    7     1       0.5372807156E-04       4    7    1         0.2973388886E-02      0.8208535859E-02

    ------------------------------------------------
       NWT REQUIRED            3 OUTER ITERATIONS 
       AND A TOTAL OF          5 INNER ITERATIONS.
    ------------------------------------------------

 NO OUTPUT CONTROL FOR STRESS PERIOD   28   TIME STEP    9
 
 SOLVING FOR HEAD 
                                                   Max.-Head-Change                         Max.-Flux-Residual
  Residual-Control   Outer-Iter.   Inner-Iter.     Column Row Layer    Maximum-Head-Change  Column Row Layer    Maximum-Flux-Residual          L2-NORM 
          0                 1           2             4    7     1       0.8047916737E-02       4    7    1         0.4214414161E+00      0.1165403494E+01
          0                 2           2             4    7     1      -0.7828440257E-03       4    7    1        -0.4214422124E-01      0.1163691289E+00
          0                 3           1             4    7     1       0.5330876569E-04       4    7    1         0.2950096000E-02      0.8130076397E-02

    ------------------------------------------------
       NWT REQUIRED            3 OUTER ITERATIONS 
       AND A TOTAL OF          5 INNER ITERATIONS.
    ------------------------------------------------

 NO OUTPUT CONTROL FOR STRESS PERIOD   28   TIME STEP   10
 
 SOLVING FOR HEAD 
                                                   Max.-Head-Change                         Max.-Flux-Residual
  Residual-Control   Outer-Iter.   Inner-Iter.     Column Row Layer    Maximum-Head-Change  Column Row Layer    Maximum-Flux-Residual          L2-NORM 
          0                 1           2             4    7     1       0.7985581792E-02       4    7    1         0.4181584581E+00      0.1154464586E+01
          0                 2           2             4    7     1      -0.7767805128E-03       4    7    1        -0.4181592389E-01      0.1152986275E+00
          0                 3           1             4    7     1       0.5289586348E-04       4    7    1         0.2927115212E-02      0.8057386846E-02

    ------------------------------------------------
       NWT REQUIRED            3 OUTER ITERATIONS 
       AND A TOTAL OF          5 INNER ITERATIONS.
    ------------------------------------------------

 NO OUTPUT CONTROL FOR STRESS PERIOD   28   TIME STEP   11
 
 SOLVING FOR HEAD 
                                                   Max.-Head-Change                         Max.-Flux-Residual
  Residual-Control   Outer-Iter.   Inner-Iter.     Column Row Layer    Maximum-Head-Change  Column Row Layer    Maximum-Flux-Residual          L2-NORM 
          0                 1           2             4    7     1       0.7924071852E-02       4    7    1         0.4149191252E+00      0.1144204613E+01
          0                 2           2             4    7     1      -0.7707972500E-03       4    7    1        -0.4149198907E-01      0.1142926812E+00
          0                 3           1             4    7     1       0.5248842559E-04       4    7    1         0.2904439770E-02      0.7988767823E-02

    ------------------------------------------------
       NWT REQUIRED            3 OUTER ITERATIONS 
       AND A TOTAL OF          5 INNER ITERATIONS.
    ------------------------------------------------

 NO OUTPUT CONTROL FOR STRESS PERIOD   28   TIME STEP   12
 
 SOLVING FOR HEAD 
                                                   Max.-Head-Change                         Max.-Flux-Residual
  Residual-Control   Outer-Iter.   Inner-Iter.     Column Row Layer    Maximum-Head-Change  Column Row Layer    Maximum-Flux-Residual          L2-NORM 
          0                 1           2             4    7     1       0.7863370468E-02       4    7    1         0.4117225675E+00      0.1134538618E+01
          0                 2           2             4    7     1      -0.7648926382E-03       4    7    1        -0.4117233181E-01      0.1133435197E+00
          0                 3           1             4    7     1       0.5208634362E-04       4    7    1         0.2882063759E-02      0.7923959343E-02

    ------------------------------------------------
       NWT REQUIRED            3 OUTER ITERATIONS 
       AND A TOTAL OF          5 INNER ITERATIONS.
    ------------------------------------------------

 NO OUTPUT CONTROL FOR STRESS PERIOD   28   TIME STEP   13
 
 SOLVING FOR HEAD 
                                                   Max.-Head-Change                         Max.-Flux-Residual
  Residual-Control   Outer-Iter.   Inner-Iter.     Column Row Layer    Maximum-Head-Change  Column Row Layer    Maximum-Flux-Residual          L2-NORM 
          0                 1           2             4    7     1       0.7803458268E-02       4    7    1         0.4085679323E+00      0.1125380538E+01
          0                 2           2             4    7     1      -0.7590647937E-03       4    7    1        -0.4085686686E-01      0.1124426340E+00
          0                 3           1             4    7     1       0.5168948929E-04       4    7    1         0.2859981213E-02      0.7862245748E-02

    ------------------------------------------------
       NWT REQUIRED            3 OUTER ITERATIONS 
       AND A TOTAL OF          5 INNER ITERATIONS.
    ------------------------------------------------

 NO OUTPUT CONTROL FOR STRESS PERIOD   28   TIME STEP   14
 
 SOLVING FOR HEAD 
                                                   Max.-Head-Change                         Max.-Flux-Residual
  Residual-Control   Outer-Iter.   Inner-Iter.     Column Row Layer    Maximum-Head-Change  Column Row Layer    Maximum-Flux-Residual          L2-NORM 
          0                 1           2             4    7     1       0.7744453878E-02       4    7    1         0.4054615562E+00      0.1116672288E+01
          0                 2           2             4    7     1      -0.7533252551E-03       4    7    1        -0.4054622786E-01      0.1115845231E+00
          0                 3           1             4    7     1       0.5129864847E-04       4    7    1         0.2838236502E-02      0.7803178907E-02

    ------------------------------------------------
       NWT REQUIRED            3 OUTER ITERATIONS 
       AND A TOTAL OF          5 INNER ITERATIONS.
    ------------------------------------------------

 NO OUTPUT CONTROL FOR STRESS PERIOD   28   TIME STEP   15
 
 SOLVING FOR HEAD 
                                                   Max.-Head-Change                         Max.-Flux-Residual
  Residual-Control   Outer-Iter.   Inner-Iter.     Column Row Layer    Maximum-Head-Change  Column Row Layer    Maximum-Flux-Residual          L2-NORM 
          0                 1           2             4    7     1       0.7686061780E-02       4    7    1         0.4023875664E+00      0.1108361742E+01
          0                 2           2             4    7     1      -0.7476452758E-03       4    7    1        -0.4023882750E-01      0.1107651532E+00
          0                 3           1             4    7     1       0.5091186281E-04       4    7    1         0.2816718466E-02      0.7746900357E-02

    ------------------------------------------------
       NWT REQUIRED            3 OUTER ITERATIONS 
       AND A TOTAL OF          5 INNER ITERATIONS.
    ------------------------------------------------

 NO OUTPUT CONTROL FOR STRESS PERIOD   28   TIME STEP   16
 
 SOLVING FOR HEAD 
                                                   Max.-Head-Change                         Max.-Flux-Residual
  Residual-Control   Outer-Iter.   Inner-Iter.     Column Row Layer    Maximum-Head-Change  Column Row Layer    Maximum-Flux-Residual          L2-NORM 
          0                 1           2             4    7     1       0.7628547581E-02       4    7    1         0.3993600054E+00      0.1100406400E+01
          0                 2           2             4    7     1      -0.7420506927E-03       4    7    1        -0.3993607007E-01      0.1099787974E+00
          0                 3           1             4    7     1       0.5053089280E-04       4    7    1         0.2795525458E-02      0.7692969405E-02

    ------------------------------------------------
       NWT REQUIRED            3 OUTER ITERATIONS 
       AND A TOTAL OF          5 INNER ITERATIONS.
    ------------------------------------------------

 NO OUTPUT CONTROL FOR STRESS PERIOD   28   TIME STEP   17
 
 SOLVING FOR HEAD 
                                                   Max.-Head-Change                         Max.-Flux-Residual
  Residual-Control   Outer-Iter.   Inner-Iter.     Column Row Layer    Maximum-Head-Change  Column Row Layer    Maximum-Flux-Residual          L2-NORM 
          0                 1           2             4    7     1       0.7571616539E-02       4    7    1         0.3963632795E+00      0.1092757224E+01
          0                 2           2             4    7     1      -0.7365128353E-03       4    7    1        -0.3963639617E-01      0.1092222944E+00
          0                 3           1             4    7     1       0.5015378554E-04       4    7    1         0.2774548294E-02      0.7640674402E-02

    ------------------------------------------------
       NWT REQUIRED            3 OUTER ITERATIONS 
       AND A TOTAL OF          5 INNER ITERATIONS.
    ------------------------------------------------

 NO OUTPUT CONTROL FOR STRESS PERIOD   28   TIME STEP   18
 
 SOLVING FOR HEAD 
                                                   Max.-Head-Change                         Max.-Flux-Residual
  Residual-Control   Outer-Iter.   Inner-Iter.     Column Row Layer    Maximum-Head-Change  Column Row Layer    Maximum-Flux-Residual          L2-NORM 
          0                 1           2             4    7     1       0.7515531201E-02       4    7    1         0.3934114724E+00      0.1085385345E+01
          0                 2           2             4    7     1      -0.7310572423E-03       4    7    1        -0.3934121419E-01      0.1084921899E+00
          0                 3           1             4    7     1       0.4978227998E-04       4    7    1         0.2753885545E-02      0.7590179175E-02

    ------------------------------------------------
       NWT REQUIRED            3 OUTER ITERATIONS 
       AND A TOTAL OF          5 INNER ITERATIONS.
    ------------------------------------------------

 NO OUTPUT CONTROL FOR STRESS PERIOD   28   TIME STEP   19
 
 SOLVING FOR HEAD 
                                                   Max.-Head-Change                         Max.-Flux-Residual
  Residual-Control   Outer-Iter.   Inner-Iter.     Column Row Layer    Maximum-Head-Change  Column Row Layer    Maximum-Flux-Residual          L2-NORM 
          0                 1           2             4    7     1       0.7460132934E-02       4    7    1         0.3904961722E+00      0.1078257316E+01
          0                 2           2             4    7     1      -0.7256684834E-03       4    7    1        -0.3904968294E-01      0.1077856736E+00
          0                 3           1             4    7     1       0.4941532552E-04       4    7    1         0.2733478361E-02      0.7541323734E-02

    ------------------------------------------------
       NWT REQUIRED            3 OUTER ITERATIONS 
       AND A TOTAL OF          5 INNER ITERATIONS.
    ------------------------------------------------

 NO OUTPUT CONTROL FOR STRESS PERIOD   28   TIME STEP   20
 
 SOLVING FOR HEAD 
                                                   Max.-Head-Change                         Max.-Flux-Residual
  Residual-Control   Outer-Iter.   Inner-Iter.     Column Row Layer    Maximum-Head-Change  Column Row Layer    Maximum-Flux-Residual          L2-NORM 
          0                 1           2             4    7     1       0.7405412502E-02       4    7    1         0.3876164956E+00      0.1071360170E+01
          0                 2           2             4    7     1      -0.7203456594E-03       4    7    1        -0.3876171406E-01      0.1071012224E+00
          0                 3           1             4    7     1       0.4905286088E-04       4    7    1         0.2713320546E-02      0.7493939827E-02

    ------------------------------------------------
       NWT REQUIRED            3 OUTER ITERATIONS 
       AND A TOTAL OF          5 INNER ITERATIONS.
    ------------------------------------------------

 NO OUTPUT CONTROL FOR STRESS PERIOD   28   TIME STEP   21
 
 SOLVING FOR HEAD 
                                                   Max.-Head-Change                         Max.-Flux-Residual
  Residual-Control   Outer-Iter.   Inner-Iter.     Column Row Layer    Maximum-Head-Change  Column Row Layer    Maximum-Flux-Residual          L2-NORM 
          0                 1           2             4    7     1       0.7351353388E-02       4    7    1         0.3847719637E+00      0.1064659334E+01
          0                 2           2             4    7     1      -0.7150871641E-03       4    7    1        -0.3847725969E-01      0.1064357035E+00
          0                 3           1             4    7     1       0.4869477718E-04       4    7    1         0.2693408741E-02      0.7447748050E-02

    ------------------------------------------------
       NWT REQUIRED            3 OUTER ITERATIONS 
       AND A TOTAL OF          5 INNER ITERATIONS.
    ------------------------------------------------

 NO OUTPUT CONTROL FOR STRESS PERIOD   28   TIME STEP   22
 
 SOLVING FOR HEAD 
                                                   Max.-Head-Change                         Max.-Flux-Residual
  Residual-Control   Outer-Iter.   Inner-Iter.     Column Row Layer    Maximum-Head-Change  Column Row Layer    Maximum-Flux-Residual          L2-NORM 
          0                 1           2             4    7     1       0.7298077806E-02       4    7    1         0.3819690622E+00      0.1058146944E+01
          0                 2           2             4    7     1      -0.7099048858E-03       4    7    1        -0.3819696840E-01      0.1057883823E+00
          0                 3           1             4    7     1       0.4834188337E-04       4    7    1         0.2673788355E-02      0.7402734787E-02

    ------------------------------------------------
       NWT REQUIRED            3 OUTER ITERATIONS 
       AND A TOTAL OF          5 INNER ITERATIONS.
    ------------------------------------------------

 NO OUTPUT CONTROL FOR STRESS PERIOD   28   TIME STEP   23
 
 SOLVING FOR HEAD 
                                                   Max.-Head-Change                         Max.-Flux-Residual
  Residual-Control   Outer-Iter.   Inner-Iter.     Column Row Layer    Maximum-Head-Change  Column Row Layer    Maximum-Flux-Residual          L2-NORM 
          0                 1           2             4    7     1       0.7245431288E-02       4    7    1         0.3791994437E+00      0.1051797098E+01
          0                 2           2             4    7     1      -0.7047837984E-03       4    7    1        -0.3792000543E-01      0.1051569605E+00
          0                 3           1             4    7     1       0.4799315654E-04       4    7    1         0.2654400940E-02      0.7358940387E-02

    ------------------------------------------------
       NWT REQUIRED            3 OUTER ITERATIONS 
       AND A TOTAL OF          5 INNER ITERATIONS.
    ------------------------------------------------

 NO OUTPUT CONTROL FOR STRESS PERIOD   28   TIME STEP   24
 
 SOLVING FOR HEAD 
                                                   Max.-Head-Change                         Max.-Flux-Residual
  Residual-Control   Outer-Iter.   Inner-Iter.     Column Row Layer    Maximum-Head-Change  Column Row Layer    Maximum-Flux-Residual          L2-NORM 
          0                 1           2             4    7     1       0.7193404758E-02       4    7    1         0.3764624412E+00      0.1045598909E+01
          0                 2           2             4    7     1      -0.6997230195E-03       4    7    1        -0.3764630407E-01      0.1045399202E+00
          0                 3           1             4    7     1       0.4764853624E-04       4    7    1         0.2635241857E-02      0.7315783105E-02

    ------------------------------------------------
       NWT REQUIRED            3 OUTER ITERATIONS 
       AND A TOTAL OF          5 INNER ITERATIONS.
    ------------------------------------------------

 NO OUTPUT CONTROL FOR STRESS PERIOD   28   TIME STEP   25
 
 SOLVING FOR HEAD 
                                                   Max.-Head-Change                         Max.-Flux-Residual
  Residual-Control   Outer-Iter.   Inner-Iter.     Column Row Layer    Maximum-Head-Change  Column Row Layer    Maximum-Flux-Residual          L2-NORM 
          0                 1           2             4    7     1       0.7141984588E-02       4    7    1         0.3737575842E+00      0.1039541774E+01
          0                 2           2             4    7     1      -0.6947212229E-03       4    7    1        -0.3737581730E-01      0.1039369255E+00
          0                 3           1             4    7     1       0.4730793275E-04       4    7    1         0.2616307780E-02      0.7274020137E-02

    ------------------------------------------------
       NWT REQUIRED            3 OUTER ITERATIONS 
       AND A TOTAL OF          5 INNER ITERATIONS.
    ------------------------------------------------

 NO OUTPUT CONTROL FOR STRESS PERIOD   28   TIME STEP   26
 
 SOLVING FOR HEAD 
                                                   Max.-Head-Change                         Max.-Flux-Residual
  Residual-Control   Outer-Iter.   Inner-Iter.     Column Row Layer    Maximum-Head-Change  Column Row Layer    Maximum-Flux-Residual          L2-NORM 
          0                 1           2             4    7     1       0.7091159824E-02       4    7    1         0.3710841659E+00      0.1033612834E+01
          0                 2           2             4    7     1      -0.6897773440E-03       4    7    1        -0.3710847442E-01      0.1033462230E+00
          0                 3           1             4    7     1       0.4697127307E-04       4    7    1         0.2597593785E-02      0.7232797688E-02

    ------------------------------------------------
       NWT REQUIRED            3 OUTER ITERATIONS 
       AND A TOTAL OF          5 INNER ITERATIONS.
    ------------------------------------------------

 NO OUTPUT CONTROL FOR STRESS PERIOD   28   TIME STEP   27
 
 SOLVING FOR HEAD 
                                                   Max.-Head-Change                         Max.-Flux-Residual
  Residual-Control   Outer-Iter.   Inner-Iter.     Column Row Layer    Maximum-Head-Change  Column Row Layer    Maximum-Flux-Residual          L2-NORM 
          0                 1           2             4    7     1       0.7041054285E-02       4    7    1         0.3684489612E+00      0.1027810518E+01
          0                 2           2             4    7     1      -0.6849034261E-03       4    7    1        -0.3684495294E-01      0.1027679396E+00
          0                 3           1             4    7     1       0.4663937750E-04       4    7    1         0.2579147278E-02      0.7192560735E-02

    ------------------------------------------------
       NWT REQUIRED            3 OUTER ITERATIONS 
       AND A TOTAL OF          5 INNER ITERATIONS.
    ------------------------------------------------

 NO OUTPUT CONTROL FOR STRESS PERIOD   28   TIME STEP   28
 
 SOLVING FOR HEAD 
                                                   Max.-Head-Change                         Max.-Flux-Residual
  Residual-Control   Outer-Iter.   Inner-Iter.     Column Row Layer    Maximum-Head-Change  Column Row Layer    Maximum-Flux-Residual          L2-NORM 
          0                 1           2             4    7     1       0.6991515202E-02       4    7    1         0.3658437047E+00      0.1022118606E+01
          0                 2           2             4    7     1      -0.6800846095E-03       4    7    1        -0.3658442629E-01      0.1022004351E+00
          0                 3           1             4    7     1       0.4631123403E-04       4    7    1         0.2560910420E-02      0.7153007285E-02

    ------------------------------------------------
       NWT REQUIRED            3 OUTER ITERATIONS 
       AND A TOTAL OF          5 INNER ITERATIONS.
    ------------------------------------------------

 NO OUTPUT CONTROL FOR STRESS PERIOD   28   TIME STEP   29
 
 SOLVING FOR HEAD 
                                                   Max.-Head-Change                         Max.-Flux-Residual
  Residual-Control   Outer-Iter.   Inner-Iter.     Column Row Layer    Maximum-Head-Change  Column Row Layer    Maximum-Flux-Residual          L2-NORM 
          0                 1           2             4    7     1       0.6942531641E-02       4    7    1         0.3632678180E+00      0.1016528123E+01
          0                 2           2             4    7     1      -0.6753198299E-03       4    7    1        -0.3632683664E-01      0.1016429332E+00
          0                 3           1             4    7     1       0.4598677012E-04       4    7    1         0.2542879142E-02      0.7114141705E-02

    ------------------------------------------------
       NWT REQUIRED            3 OUTER ITERATIONS 
       AND A TOTAL OF          5 INNER ITERATIONS.
    ------------------------------------------------

 NO OUTPUT CONTROL FOR STRESS PERIOD   28   TIME STEP   30



 STREAM LISTING     PERIOD     28   STEP       30

 LAYER ROW COL. STREAM  RCH.  FLOW INTO     FLOW TO   FLOW OUT OF   OVRLND.     DIRECT     STREAM       STREAM     STREAM     STREAM   STREAMBED  STREAMBED
                SEG.NO.  NO.  STRM. RCH.    AQUIFER    STRM. RCH.    RUNOFF     PRECIP       ET          HEAD       DEPTH      WIDTH   CONDCTNC.   GRADIENT

   1    1    1     1     1    2.8874E+01  2.6239E-01   2.8612E+01  0.000E+00  0.000E+00  0.000E+00  1.09428E+03  1.233E+00  1.377E+01  6.198E-02  1.411E+00
   1    2    2     1     2    2.8612E+01  4.0592E-01   2.8206E+01  0.000E+00  0.000E+00  0.000E+00  1.08929E+03  1.229E+00  1.371E+01  9.599E-02  1.410E+00
   1    3    3     1     3    2.8206E+01  3.4575E-01   2.7860E+01  0.000E+00  0.000E+00  0.000E+00  1.08364E+03  1.224E+00  1.364E+01  8.186E-02  1.408E+00
   1    3    4     1     4    2.7860E+01  3.1803E-01   2.7542E+01  0.000E+00  0.000E+00  0.000E+00  1.07863E+03  1.219E+00  1.358E+01  7.538E-02  1.406E+00
   1    4    5     2     1    2.5542E+01  3.2904E-01   2.5213E+01  0.000E+00  0.000E+00  0.000E+00  1.07315E+03  1.218E+00  1.200E+01  7.800E-02  1.406E+00
   1    5    6     2     2    2.5213E+01  2.5260E-01   2.4960E+01  0.000E+00  0.000E+00  0.000E+00  1.06772E+03  1.210E+00  1.200E+01  6.000E-02  1.403E+00
   1    6    6     2     3    2.4960E+01  2.5217E-01   2.4708E+01  0.000E+00  0.000E+00  0.000E+00  1.06300E+03  1.203E+00  1.200E+01  6.000E-02  1.401E+00
   1    7    6     2     4    2.4708E+01  2.5172E-01   2.4457E+01  0.000E+00  0.000E+00  0.000E+00  1.05827E+03  1.195E+00  1.200E+01  6.000E-02  1.398E+00
   1    8    6     2     5    2.4457E+01  2.5128E-01   2.4205E+01  0.000E+00  0.000E+00  0.000E+00  1.05355E+03  1.188E+00  1.200E+01  6.000E-02  1.396E+00
   1    3    5     3     1    2.0000E+00  2.8252E-01   1.7175E+00  0.000E+00  0.000E+00  0.000E+00  1.07555E+03  1.909E+00  9.636E+00  7.227E-02  1.955E+00
   1    3    6     3     2    1.7175E+00  2.4905E-01   1.4684E+00  0.000E+00  0.000E+00  0.000E+00  1.07264E+03  1.727E+00  8.909E+00  6.682E-02  1.864E+00
   1    3    7     3     3    1.4684E+00  1.9718E-01   1.2712E+00  0.000E+00  0.000E+00  0.000E+00  1.06987E+03  1.555E+00  8.218E+00  5.547E-02  1.777E+00
   1    4    8     3     4    1.2712E+00  2.2567E-01   1.0456E+00  0.000E+00  0.000E+00  0.000E+00  1.06682E+03  1.364E+00  7.455E+00  6.709E-02  1.682E+00
   1    5    8     3     5    1.0456E+00  1.5790E-01   8.8768E-01  0.000E+00  0.000E+00  0.000E+00  1.06362E+03  1.164E+00  6.655E+00  4.991E-02  1.582E+00
   1    6    8     3     6    8.8768E-01  5.5980E-02   8.3170E-01  0.000E+00  0.000E+00  0.000E+00  1.06158E+03  1.036E+00  6.145E+00  1.844E-02  1.518E+00
   1    5   10     4     1    1.0000E+01  9.0919E-02   9.9091E+00  0.000E+00  0.000E+00  0.000E+00  1.07836E+03  6.368E-01  1.000E+01  2.500E-02  1.212E+00
   1    5    9     4     2    9.9091E+00  1.8158E-01   9.7275E+00  0.000E+00  0.000E+00  0.000E+00  1.07154E+03  6.315E-01  1.000E+01  5.000E-02  1.211E+00
   1    6    8     4     3    9.7275E+00  1.2689E-01   9.6006E+00  0.000E+00  0.000E+00  0.000E+00  1.06381E+03  6.256E-01  1.000E+01  3.500E-02  1.209E+00
   1    6    8     5     1    1.0432E+01  2.2686E-01   1.0205E+01  0.000E+00  0.000E+00  0.000E+00  1.05868E+03  6.790E-01  1.542E+01  6.166E-02  1.226E+00
   1    7    7     5     2    1.0205E+01  2.7894E-01   9.9265E+00  0.000E+00  0.000E+00  0.000E+00  1.05417E+03  6.732E-01  1.519E+01  7.594E-02  1.224E+00
   1    8    7     5     3    9.9265E+00  1.9221E-01   9.7343E+00  0.000E+00  0.000E+00  0.000E+00  1.04992E+03  6.676E-01  1.497E+01  5.241E-02  1.223E+00
   1    8    6     5     4    9.7343E+00  1.3577E-01   9.5985E+00  0.000E+00  0.000E+00  0.000E+00  1.04691E+03  6.637E-01  1.482E+01  3.706E-02  1.221E+00
   1    9    6     6     1    3.3804E+01  2.6759E-01   3.3536E+01  0.000E+00  0.000E+00  0.000E+00  1.04419E+03  1.460E+00  1.200E+01  6.000E-02  1.487E+00
   1   10    7     6     2    3.3536E+01  2.6717E-01   3.3269E+01  0.000E+00  0.000E+00  0.000E+00  1.03963E+03  1.453E+00  1.200E+01  6.000E-02  1.484E+00
   1   11    7     6     3    3.3269E+01  2.6676E-01   3.3002E+01  0.000E+00  0.000E+00  0.000E+00  1.03508E+03  1.446E+00  1.200E+01  6.000E-02  1.482E+00
   1   12    7     6     4    3.3002E+01  2.6634E-01   3.2736E+01  0.000E+00  0.000E+00  0.000E+00  1.03053E+03  1.439E+00  1.200E+01  6.000E-02  1.480E+00
   1   13    7     6     5    3.2736E+01  1.5080E-02   3.2721E+01  0.000E+00  0.000E+00  0.000E+00  1.02734E+03  1.435E+00  1.200E+01  2.400E-02  2.094E-01
   1   14    9     7     1    1.5000E+02  1.3773E+00   1.4862E+02  0.000E+00  0.000E+00  0.000E+00  1.03987E+03  2.288E+00  5.529E+01  5.593E-01  8.209E-01
   1   13    8     7     2    1.4862E+02  1.9543E+00   1.4667E+02  0.000E+00  0.000E+00  0.000E+00  1.03478E+03  2.279E+00  5.525E+01  6.147E-01  1.060E+00
   1   13    7     7     3    1.4667E+02  1.6598E+00   1.4501E+02  0.000E+00  0.000E+00  0.000E+00  1.02969E+03  2.269E+00  5.521E+01  5.584E-01  9.908E-01
   1   13    6     8     1    1.7773E+02  1.1372E+00   1.7659E+02  0.000E+00  0.000E+00  0.000E+00  1.02487E+03  2.998E+00  4.347E+01  4.430E-01  8.556E-01
   1   13    5     8     2    1.7659E+02  3.5779E-01   1.7623E+02  0.000E+00  0.000E+00  0.000E+00  1.01862E+03  2.993E+00  4.341E+01  4.423E-01  2.696E-01
   1   13    4     8     3    1.7623E+02 -1.8614E+00   1.7810E+02  0.000E+00  0.000E+00  0.000E+00  1.01237E+03  2.998E+00  4.347E+01  4.430E+00 -1.401E-01
   1   13    3     8     4    1.7810E+02 -3.3526E+00   1.8145E+02  0.000E+00  0.000E+00  0.000E+00  1.00614E+03  3.015E+00  4.371E+01  4.455E+00 -2.509E-01
   1   13    2     8     5    1.8145E+02 -2.4660E+00   1.8391E+02  0.000E+00  0.000E+00  0.000E+00  9.99908E+02  3.033E+00  4.398E+01  4.481E+00 -1.834E-01
   1   13    1     8     6    1.8391E+02 -1.9159E+00   1.8583E+02  0.000E+00  0.000E+00  0.000E+00  9.94922E+02  3.047E+00  4.417E+01  2.701E+00 -2.364E-01
   1    8    6     9     1    0.0000E+00  0.0000E+00   0.0000E+00  0.000E+00  0.000E+00  0.000E+00  1.07875E+03  0.000E+00  4.000E+00  0.000E+00  1.000E+00
   1    8    5     9     2    0.0000E+00  0.0000E+00   0.0000E+00  0.000E+00  0.000E+00  0.000E+00  1.07825E+03  0.000E+00  4.000E+00  0.000E+00  1.000E+00





UNSATURATED ZONE PACKAGE VOLUMETRIC BUDGET FOR  TIME STEP    30 STRESS PERIOD   28
  ------------------------------------------------------------------------------



     CUMULATIVE VOLUMES      L**3       RATES FOR THIS TIME STEP      L**3/T
     ------------------                 ------------------------

           IN:                                      IN:
           ---                                      ---
        INFILTRATION =   871001563.5333          INFILTRATION =           0.8475

          OUT:                                     OUT:
          ----                                     ----
              UZF ET =   865968571.0929                UZF ET =           0.7500
        UZF RECHARGE =       73224.0000          UZF RECHARGE =       0.0000E+00

            IN - OUT =     4959768.4404              IN - OUT =       9.7500E-02

          STORAGE:                                 STORAGE:
          --------                                 --------
      STORAGE CHANGE =     4959767.1424        STORAGE CHANGE =       9.7500E-02

 PERCENT DISCREPANCY IS DIFFERENCE BETWEEN IN-OUT MINUS CHANGE IN STORAGE
 DIVIDED BY THE AVERAGE OF IN AND OUT TIMES 100

 PERCENT DISCREPANCY =           0.00     PERCENT DISCREPANCY =           0.00






1
  VOLUMETRIC BUDGET FOR AGRICULTURAL FIELDS AT  END OF TIME STEP   30, STRESS PERIOD  28
  ------------------------------------------------------------------------------

     CUMULATIVE VOLUMES      L**3       RATES FOR THIS TIME STEP      L**3/T
     ------------------                 ------------------------

           IN:                                      IN:
           ---                                      ---
           AG WELLS      =   428269280.0000             AG WELLS      =           0.0000
      DIVERSION SEGMENTS =   382511616.0000        DIVERSION SEGMENTS =           0.0000
           GW IRRIGATION =           0.0000             GW IRRIGATION =           0.0000
           SW IRRIGATION =           0.0000             SW IRRIGATION =           0.0000
        SYSTEM LOSSES GW =           0.0000          SYSTEM LOSSES GW =           0.0000
        SYSTEM LOSSES SW =           0.0000          SYSTEM LOSSES SW =           0.0000

                TOTAL IN =   810780928.0000                  TOTAL IN =           0.0000

          OUT:                                     OUT:
          ----                                     ----
           AG WELLS      =           0.0000             AG WELLS      =           0.0000
      DIVERSION SEGMENTS =           0.0000        DIVERSION SEGMENTS =           0.0000
           GW IRRIGATION =   428269280.0000             GW IRRIGATION =           0.0000
           SW IRRIGATION =   382519104.0000             SW IRRIGATION =           0.0000
        SYSTEM LOSSES GW =           0.0000          SYSTEM LOSSES GW =           0.0000
        SYSTEM LOSSES SW =           0.0000          SYSTEM LOSSES SW =           0.0000

               TOTAL OUT =   810788352.0000                 TOTAL OUT =           0.0000

                IN - OUT =       -7424.0000                  IN - OUT =           0.0000

     PERCENT DISCREPANCY =          -0.00         PERCENT DISCREPANCY =           0.00



1
  VOLUMETRIC BUDGET FOR ENTIRE MODEL AT END OF TIME STEP   30, STRESS PERIOD  28
  ------------------------------------------------------------------------------

     CUMULATIVE VOLUMES      L**3       RATES FOR THIS TIME STEP      L**3/T
     ------------------                 ------------------------

           IN:                                      IN:
           ---                                      ---
             STORAGE     =   635743104.0000               STORAGE     =           1.8015
       CONSTANT HEAD     =           0.0000         CONSTANT HEAD     =           0.0000
     HEAD DEP BOUNDS     =    20484638.0000       HEAD DEP BOUNDS     =           0.2886
      STREAM LEAKAGE     =   833019200.0000        STREAM LEAKAGE     =          12.6397
        UZF RECHARGE     =       73223.9531          UZF RECHARGE     =           0.0000
               GW ET     =           0.0000                 GW ET     =           0.0000
     SURFACE LEAKAGE     =           0.0000       SURFACE LEAKAGE     =           0.0000
           AG WELLS      =           0.0000             AG WELLS      =           0.0000

                TOTAL IN =  1489320192.0000                  TOTAL IN =          14.7297

          OUT:                                     OUT:
          ----                                     ----
             STORAGE     =   316584832.0000               STORAGE     =           4.8448
       CONSTANT HEAD     =           0.0000         CONSTANT HEAD     =           0.0000
     HEAD DEP BOUNDS     =    20465588.0000       HEAD DEP BOUNDS     =           0.2900
      STREAM LEAKAGE     =   724011520.0000        STREAM LEAKAGE     =           9.5958
        UZF RECHARGE     =           0.0000          UZF RECHARGE     =           0.0000
               GW ET     =           0.0000                 GW ET     =           0.0000
     SURFACE LEAKAGE     =           0.0000       SURFACE LEAKAGE     =           0.0000
           AG WELLS      =   428269280.0000             AG WELLS      =           0.0000

               TOTAL OUT =  1489331200.0000                 TOTAL OUT =          14.7306

                IN - OUT =      -11008.0000                  IN - OUT =      -8.6784E-04

     PERCENT DISCREPANCY =          -0.00         PERCENT DISCREPANCY =          -0.01






         TIME SUMMARY AT END OF TIME STEP   30 IN STRESS PERIOD   28
                    SECONDS     MINUTES      HOURS       DAYS        YEARS
                    -----------------------------------------------------------
   TIME STEP LENGTH  87667.      1461.1      24.352      1.0147     2.77799E-03
 STRESS PERIOD TIME 2.63000E+06  43833.      730.56      30.440     8.33397E-02
         TOTAL TIME 7.10967E+07 1.18494E+06  19749.      822.88      2.2529    
1
1
                            STRESS PERIOD NO.   29, LENGTH =   2630000.    
                            -----------------------------------------------

                              NUMBER OF TIME STEPS =    30

                               MULTIPLIER FOR DELT =     1.000

                            INITIAL TIME STEP SIZE =   87666.66    

 REUSING NON-PARAMETER GHB CELLS FROM LAST STRESS PERIOD

      2 GHB CELLS

 REUSING STREAM SEGMENT DATA FROM LAST STRESS PERIOD



            AREAL INFILTRATION RATE
 READING ON UNIT   19 WITH FORMAT: (FREE)              

            1           2           3           4           5           6           7           8           9          10
 ........................................................................................................................
   1   1.0000E-10  2.0000E-10   0.000       0.000       0.000       0.000       0.000       0.000       0.000       0.000    
   2   2.0000E-10  1.0000E-10  2.0000E-10   0.000       0.000      8.0000E-10  8.0000E-10  5.0000E-10   0.000       0.000    
   3    0.000      5.0000E-10  1.0000E-10  1.0000E-10  8.0000E-10  8.0000E-10  5.0000E-10  5.0000E-10   0.000       0.000    
   4   8.0000E-10  5.0000E-10  1.0000E-10  1.0000E-10  1.0000E-10  1.0000E-10  1.0000E-10  1.0000E-10  2.0000E-10   0.000    
   5   8.0000E-10  5.0000E-10  1.0000E-10  1.0000E-10  1.0000E-10  1.0000E-10  1.0000E-10  1.0000E-10  1.0000E-10  1.0000E-10
   6   8.0000E-10  5.0000E-10  5.0000E-10  2.0000E-10  2.0000E-10  1.0000E-10  1.0000E-10  1.0000E-10  1.0000E-10  5.0000E-10
   7   8.0000E-10  5.0000E-10  5.0000E-10  2.0000E-10  2.0000E-10  1.0000E-10  1.0000E-10  2.0000E-10  2.0000E-10   0.000    
   8    0.000      5.0000E-10  5.0000E-10  2.0000E-10  2.0000E-10  1.0000E-10  1.0000E-10  2.0000E-10  5.0000E-10   0.000    
   9    0.000      5.0000E-10  5.0000E-10  2.0000E-10  2.0000E-10  1.0000E-10  1.0000E-10  2.0000E-10  5.0000E-10   0.000    
  10    0.000      5.0000E-10  5.0000E-10  2.0000E-10  2.0000E-10  1.0000E-10  1.0000E-10  2.0000E-10  5.0000E-10  8.0000E-10
  11    0.000      1.0000E-10  1.0000E-10  1.0000E-10  1.0000E-10  1.0000E-10  1.0000E-10  2.0000E-10  5.0000E-10   0.000    
  12   1.0000E-10  1.0000E-10  1.0000E-10  1.0000E-10  1.0000E-10  1.0000E-10  1.0000E-10  1.0000E-10  2.0000E-10   0.000    
  13   1.0000E-10  1.0000E-10  2.0000E-10  2.0000E-10  2.0000E-10  2.0000E-10  2.0000E-10  1.0000E-10  1.0000E-10   0.000    
  14    0.000      2.0000E-10  5.0000E-10  5.0000E-10  5.0000E-10  5.0000E-10  5.0000E-10  2.0000E-10  1.0000E-10   0.000    
  15    0.000       0.000      8.0000E-10  8.0000E-10  8.0000E-10  8.0000E-10   0.000       0.000       0.000       0.000    

                  ET RATE =  2.500000E-08

 USING ET EXTINCTION DEPTH FROM PREVIOUS STRESS PERIOD. CURRENT PERIOD IS:      29

 USING EXTINCTION WATER CONTENT FROM PREVIOUS STRESS PERIOD. CURRENT PERIOD IS:      29

 USING AIR ENTRY PRESSURE FROM PREVIOUS STRESS PERIOD. CURRENT PERIOD IS:      29

 USING ROOT PRESSURE HEAD FROM PREVIOUS STRESS PERIOD. CURRENT PERIOD IS:      29

 USING ROOT ACTIVITY FROM PREVIOUS STRESS PERIOD. CURRENT PERIOD IS:      29

 PROCESSING AG STRESS PERIOD DATA

 READING AG STRESS PERIOD DATA

 READING IRRIGATION SEGMENT

 READING IRRIGATION WELL

 READING SUPPLEMENTAL WELL

 END PROCESSING AG STRESS PERIOD DATA OPTIONS
 
 SOLVING FOR HEAD 
                                                   Max.-Head-Change                         Max.-Flux-Residual
  Residual-Control   Outer-Iter.   Inner-Iter.     Column Row Layer    Maximum-Head-Change  Column Row Layer    Maximum-Flux-Residual          L2-NORM 
          0                 1           2             4    7     1       0.6894094881E-02       4    7    1         0.3607207343E+00      0.1011037287E+01
          0                 2           2             4    7     1      -0.6706082400E-03       4    7    1        -0.3607212732E-01      0.1010949855E+00
          0                 3           1             4    7     1       0.4566592885E-04       4    7    1         0.2525049491E-02      0.7075861304E-02

    ------------------------------------------------
       NWT REQUIRED            3 OUTER ITERATIONS 
       AND A TOTAL OF          5 INNER ITERATIONS.
    ------------------------------------------------

 NO OUTPUT CONTROL FOR STRESS PERIOD   29   TIME STEP    1
 
 SOLVING FOR HEAD 
                                                   Max.-Head-Change                         Max.-Flux-Residual
  Residual-Control   Outer-Iter.   Inner-Iter.     Column Row Layer    Maximum-Head-Change  Column Row Layer    Maximum-Flux-Residual          L2-NORM 
          0                 1           2             4    7     1       0.6846200427E-02       4    7    1         0.3582093445E+00      0.1104818236E+01
          0                 2           2             4    7     1      -0.6659494032E-03       4    7    1        -0.3582098748E-01      0.1098407809E+00
          0                 3           1             4    7     1       0.4534867863E-04       4    7    1         0.2507469697E-02      0.7630431977E-02

    ------------------------------------------------
       NWT REQUIRED            3 OUTER ITERATIONS 
       AND A TOTAL OF          5 INNER ITERATIONS.
    ------------------------------------------------

 NO OUTPUT CONTROL FOR STRESS PERIOD   29   TIME STEP    2
 
 SOLVING FOR HEAD 
                                                   Max.-Head-Change                         Max.-Flux-Residual
  Residual-Control   Outer-Iter.   Inner-Iter.     Column Row Layer    Maximum-Head-Change  Column Row Layer    Maximum-Flux-Residual          L2-NORM 
          0                 1           2             4    7     1       0.6798669990E-02       4   13    1        -0.3601063472E+00      0.1142084044E+01
          0                 2           2             4    7     1      -0.6613259756E-03       4   13    1         0.3566729686E-01      0.1133867916E+00
          0                 3           1             4    7     1       0.4503384022E-04       4    7    1         0.2490035322E-02      0.7861413530E-02

    ------------------------------------------------
       NWT REQUIRED            3 OUTER ITERATIONS 
       AND A TOTAL OF          5 INNER ITERATIONS.
    ------------------------------------------------

 NO OUTPUT CONTROL FOR STRESS PERIOD   29   TIME STEP    3
 
 SOLVING FOR HEAD 
                                                   Max.-Head-Change                         Max.-Flux-Residual
  Residual-Control   Outer-Iter.   Inner-Iter.     Column Row Layer    Maximum-Head-Change  Column Row Layer    Maximum-Flux-Residual          L2-NORM 
          0                 1           2             4    7     1       0.6751509192E-02       4    7    1         0.3532469833E+00      0.1114012325E+01
          0                 2           2             4    7     1      -0.6567385037E-03       4    7    1        -0.3532474972E-01      0.1106801806E+00
          0                 3           1             4    7     1       0.4472145056E-04       4    7    1         0.2472733056E-02      0.7680995026E-02

    ------------------------------------------------
       NWT REQUIRED            3 OUTER ITERATIONS 
       AND A TOTAL OF          5 INNER ITERATIONS.
    ------------------------------------------------

 NO OUTPUT CONTROL FOR STRESS PERIOD   29   TIME STEP    4
 
 SOLVING FOR HEAD 
                                                   Max.-Head-Change                         Max.-Flux-Residual
  Residual-Control   Outer-Iter.   Inner-Iter.     Column Row Layer    Maximum-Head-Change  Column Row Layer    Maximum-Flux-Residual          L2-NORM 
          0                 1           2             4    7     1       0.6704851806E-02       4    7    1         0.3508017481E+00      0.1089106447E+01
          0                 2           2             4    7     1      -0.6522000010E-03       4    7    1        -0.3508022542E-01      0.1082784508E+00
          0                 3           1             4    7     1       0.4441239597E-04       4    7    1         0.2455616374E-02      0.7520469868E-02

    ------------------------------------------------
       NWT REQUIRED            3 OUTER ITERATIONS 
       AND A TOTAL OF          5 INNER ITERATIONS.
    ------------------------------------------------

 NO OUTPUT CONTROL FOR STRESS PERIOD   29   TIME STEP    5
 
 SOLVING FOR HEAD 
                                                   Max.-Head-Change                         Max.-Flux-Residual
  Residual-Control   Outer-Iter.   Inner-Iter.     Column Row Layer    Maximum-Head-Change  Column Row Layer    Maximum-Flux-Residual          L2-NORM 
          0                 1           2             4    7     1       0.6658564545E-02       4    7    1         0.3483752706E+00      0.1066953986E+01
          0                 2           2             4    7     1      -0.6476975011E-03       4    7    1        -0.3483757689E-01      0.1061420709E+00
          0                 3           1             4    7     1       0.4410579261E-04       4    7    1         0.2438630977E-02      0.7379637622E-02

    ------------------------------------------------
       NWT REQUIRED            3 OUTER ITERATIONS 
       AND A TOTAL OF          5 INNER ITERATIONS.
    ------------------------------------------------

 NO OUTPUT CONTROL FOR STRESS PERIOD   29   TIME STEP    6
 
 SOLVING FOR HEAD 
                                                   Max.-Head-Change                         Max.-Flux-Residual
  Residual-Control   Outer-Iter.   Inner-Iter.     Column Row Layer    Maximum-Head-Change  Column Row Layer    Maximum-Flux-Residual          L2-NORM 
          0                 1           2             4    7     1       0.6612643536E-02       4    7    1         0.3459679837E+00      0.1047176978E+01
          0                 2           2             4    7     1      -0.6432306272E-03       4    7    1        -0.3459684741E-01      0.1042332635E+00
          0                 3           1             4    7     1       0.4380161527E-04       4    7    1         0.2421779908E-02      0.7253307122E-02

    ------------------------------------------------
       NWT REQUIRED            3 OUTER ITERATIONS 
       AND A TOTAL OF          5 INNER ITERATIONS.
    ------------------------------------------------

 NO OUTPUT CONTROL FOR STRESS PERIOD   29   TIME STEP    7
 
 SOLVING FOR HEAD 
                                                   Max.-Head-Change                         Max.-Flux-Residual
  Residual-Control   Outer-Iter.   Inner-Iter.     Column Row Layer    Maximum-Head-Change  Column Row Layer    Maximum-Flux-Residual          L2-NORM 
          0                 1           2             4    7     1       0.6567226180E-02       4    7    1         0.3435870302E+00      0.1029473329E+01
          0                 2           2             4    7     1      -0.6388127452E-03       4    7    1        -0.3435875129E-01      0.1025237510E+00
          0                 3           1             4    7     1       0.4350077360E-04       4    7    1         0.2405113167E-02      0.7137878480E-02

    ------------------------------------------------
       NWT REQUIRED            3 OUTER ITERATIONS 
       AND A TOTAL OF          5 INNER ITERATIONS.
    ------------------------------------------------

 NO OUTPUT CONTROL FOR STRESS PERIOD   29   TIME STEP    8
 
 SOLVING FOR HEAD 
                                                   Max.-Head-Change                         Max.-Flux-Residual
  Residual-Control   Outer-Iter.   Inner-Iter.     Column Row Layer    Maximum-Head-Change  Column Row Layer    Maximum-Flux-Residual          L2-NORM 
          0                 1           2             4    7     1       0.6522040488E-02       4    7    1         0.3412175028E+00      0.1013554707E+01
          0                 2           2             4    7     1      -0.6344173982E-03       4    7    1        -0.3412179778E-01      0.1009857742E+00
          0                 3           1             4    7     1       0.4320146712E-04       4    7    1         0.2388526432E-02      0.7035024920E-02

    ------------------------------------------------
       NWT REQUIRED            3 OUTER ITERATIONS 
       AND A TOTAL OF          5 INNER ITERATIONS.
    ------------------------------------------------

 NO OUTPUT CONTROL FOR STRESS PERIOD   29   TIME STEP    9
 
 SOLVING FOR HEAD 
                                                   Max.-Head-Change                         Max.-Flux-Residual
  Residual-Control   Outer-Iter.   Inner-Iter.     Column Row Layer    Maximum-Head-Change  Column Row Layer    Maximum-Flux-Residual          L2-NORM 
          0                 1           2             4    7     1       0.6477494447E-02       4    7    1         0.3388820186E+00      0.9991838315E+00
          0                 2           2             4    7     1      -0.6300842724E-03       4    7    1        -0.3388824865E-01      0.9959522726E-01
          0                 3           1             4    7     1       0.4290639732E-04       4    7    1         0.2372177988E-02      0.6941939450E-02

    ------------------------------------------------
       NWT REQUIRED            3 OUTER ITERATIONS 
       AND A TOTAL OF          5 INNER ITERATIONS.
    ------------------------------------------------

 NO OUTPUT CONTROL FOR STRESS PERIOD   29   TIME STEP   10
 
 SOLVING FOR HEAD 
                                                   Max.-Head-Change                         Max.-Flux-Residual
  Residual-Control   Outer-Iter.   Inner-Iter.     Column Row Layer    Maximum-Head-Change  Column Row Layer    Maximum-Flux-Residual          L2-NORM 
          0                 1           2             4    7     1       0.6433172136E-02       4    7    1         0.3365576675E+00      0.9861444457E+00
          0                 2           2             4    7     1      -0.6257729087E-03       4    7    1        -0.3365581278E-01      0.9833205817E-01
          0                 3           1             4    7     1       0.4261280945E-04       4    7    1         0.2355907465E-02      0.6857238120E-02

    ------------------------------------------------
       NWT REQUIRED            3 OUTER ITERATIONS 
       AND A TOTAL OF          5 INNER ITERATIONS.
    ------------------------------------------------

 NO OUTPUT CONTROL FOR STRESS PERIOD   29   TIME STEP   11
 
 SOLVING FOR HEAD 
                                                   Max.-Head-Change                         Max.-Flux-Residual
  Residual-Control   Outer-Iter.   Inner-Iter.     Column Row Layer    Maximum-Head-Change  Column Row Layer    Maximum-Flux-Residual          L2-NORM 
          0                 1           2             4    7     1       0.6389350877E-02       4    7    1         0.3342596047E+00      0.9742605027E+00
          0                 2           2             4    7     1      -0.6215102843E-03       4    7    1        -0.3342600578E-01      0.9717896414E-01
          0                 3           1             4    7     1       0.4232254069E-04       4    7    1         0.2339820976E-02      0.6779721848E-02

    ------------------------------------------------
       NWT REQUIRED            3 OUTER ITERATIONS 
       AND A TOTAL OF          5 INNER ITERATIONS.
    ------------------------------------------------

 NO OUTPUT CONTROL FOR STRESS PERIOD   29   TIME STEP   12
 
 SOLVING FOR HEAD 
                                                   Max.-Head-Change                         Max.-Flux-Residual
  Residual-Control   Outer-Iter.   Inner-Iter.     Column Row Layer    Maximum-Head-Change  Column Row Layer    Maximum-Flux-Residual          L2-NORM 
          0                 1           2             4    7     1       0.6345891873E-02       4    7    1         0.3319801766E+00      0.9633745289E+00
          0                 2           2             4    7     1      -0.6172828982E-03       4    7    1        -0.3319806227E-01      0.9612176931E-01
          0                 3           1             4    7     1       0.4203467144E-04       4    7    1         0.2323864940E-02      0.6709244470E-02

    ------------------------------------------------
       NWT REQUIRED            3 OUTER ITERATIONS 
       AND A TOTAL OF          5 INNER ITERATIONS.
    ------------------------------------------------

 NO OUTPUT CONTROL FOR STRESS PERIOD   29   TIME STEP   13
 
 SOLVING FOR HEAD 
                                                   Max.-Head-Change                         Max.-Flux-Residual
  Residual-Control   Outer-Iter.   Inner-Iter.     Column Row Layer    Maximum-Head-Change  Column Row Layer    Maximum-Flux-Residual          L2-NORM 
          0                 1           2             4    7     1       0.6302926115E-02       4    7    1         0.3297268753E+00      0.9533558079E+00
          0                 2           2             4    7     1      -0.6131034910E-03       4    7    1        -0.3297273144E-01      0.9514727962E-01
          0                 3           1             4    7     1       0.4175006958E-04       4    7    1         0.2308091781E-02      0.6642991860E-02

    ------------------------------------------------
       NWT REQUIRED            3 OUTER ITERATIONS 
       AND A TOTAL OF          5 INNER ITERATIONS.
    ------------------------------------------------

 NO OUTPUT CONTROL FOR STRESS PERIOD   29   TIME STEP   14
 
 SOLVING FOR HEAD 
                                                   Max.-Head-Change                         Max.-Flux-Residual
  Residual-Control   Outer-Iter.   Inner-Iter.     Column Row Layer    Maximum-Head-Change  Column Row Layer    Maximum-Flux-Residual          L2-NORM 
          0                 1           2             4    7     1       0.6260312615E-02       4    7    1         0.3274918038E+00      0.9440828576E+00
          0                 2           2             4    7     1      -0.6089583495E-03       4    7    1        -0.3274922361E-01      0.9424329819E-01
          0                 3           1             4    7     1       0.4146780108E-04       4    7    1         0.2292446240E-02      0.6581994445E-02

    ------------------------------------------------
       NWT REQUIRED            3 OUTER ITERATIONS 
       AND A TOTAL OF          5 INNER ITERATIONS.
    ------------------------------------------------

 NO OUTPUT CONTROL FOR STRESS PERIOD   29   TIME STEP   15
 
 SOLVING FOR HEAD 
                                                   Max.-Head-Change                         Max.-Flux-Residual
  Residual-Control   Outer-Iter.   Inner-Iter.     Column Row Layer    Maximum-Head-Change  Column Row Layer    Maximum-Flux-Residual          L2-NORM 
          0                 1           2             4    7     1       0.6218052111E-02       4    7    1         0.3252749964E+00      0.9354543684E+00
          0                 2           2             4    7     1      -0.6048475444E-03       4    7    1        -0.3252754219E-01      0.9340152622E-01
          0                 3           1             4    7     1       0.4118786997E-04       4    7    1         0.2276928516E-02      0.6525183724E-02

    ------------------------------------------------
       NWT REQUIRED            3 OUTER ITERATIONS 
       AND A TOTAL OF          5 INNER ITERATIONS.
    ------------------------------------------------

 NO OUTPUT CONTROL FOR STRESS PERIOD   29   TIME STEP   16
 
 SOLVING FOR HEAD 
                                                   Max.-Head-Change                         Max.-Flux-Residual
  Residual-Control   Outer-Iter.   Inner-Iter.     Column Row Layer    Maximum-Head-Change  Column Row Layer    Maximum-Flux-Residual          L2-NORM 
          0                 1           2             4    7     1       0.6176278250E-02       4    7    1         0.3230838359E+00      0.9273954467E+00
          0                 2           2             4    7     1      -0.6007840771E-03       4    7    1        -0.3230842548E-01      0.9261316728E-01
          0                 3           1             4    7     1       0.4091116354E-04       4    7    1         0.2261590358E-02      0.6471322711E-02

    ------------------------------------------------
       NWT REQUIRED            3 OUTER ITERATIONS 
       AND A TOTAL OF          5 INNER ITERATIONS.
    ------------------------------------------------

 NO OUTPUT CONTROL FOR STRESS PERIOD   29   TIME STEP   17
 
 SOLVING FOR HEAD 
                                                   Max.-Head-Change                         Max.-Flux-Residual
  Residual-Control   Outer-Iter.   Inner-Iter.     Column Row Layer    Maximum-Head-Change  Column Row Layer    Maximum-Flux-Residual          L2-NORM 
          0                 1           2             4    7     1       0.6134849629E-02       4    7    1         0.3209105626E+00      0.9198240569E+00
          0                 2           2             4    7     1      -0.5967541919E-03       4    7    1        -0.3209109749E-01      0.9187163259E-01
          0                 3           1             4    7     1       0.4063674348E-04       4    7    1         0.2246377401E-02      0.6420937061E-02

    ------------------------------------------------
       NWT REQUIRED            3 OUTER ITERATIONS 
       AND A TOTAL OF          5 INNER ITERATIONS.
    ------------------------------------------------

 NO OUTPUT CONTROL FOR STRESS PERIOD   29   TIME STEP   18
 
 SOLVING FOR HEAD 
                                                   Max.-Head-Change                         Max.-Flux-Residual
  Residual-Control   Outer-Iter.   Inner-Iter.     Column Row Layer    Maximum-Head-Change  Column Row Layer    Maximum-Flux-Residual          L2-NORM 
          0                 1           2             4    7     1       0.6093764793E-02       4    7    1         0.3187551895E+00      0.9126705984E+00
          0                 2           2             4    7     1      -0.5927577483E-03       4    7    1        -0.3187555952E-01      0.9116982082E-01
          0                 3           1             4    7     1       0.4036460046E-04       4    7    1         0.2231289750E-02      0.6372880589E-02

    ------------------------------------------------
       NWT REQUIRED            3 OUTER ITERATIONS 
       AND A TOTAL OF          5 INNER ITERATIONS.
    ------------------------------------------------

 NO OUTPUT CONTROL FOR STRESS PERIOD   29   TIME STEP   19
 
 SOLVING FOR HEAD 
                                                   Max.-Head-Change                         Max.-Flux-Residual
  Residual-Control   Outer-Iter.   Inner-Iter.     Column Row Layer    Maximum-Head-Change  Column Row Layer    Maximum-Flux-Residual          L2-NORM 
          0                 1           2             4    7     1       0.6053157037E-02       4    7    1         0.3166249861E+00      0.9060010475E+00
          0                 2           2             4    7     1      -0.5888077116E-03       4    7    1        -0.3166253856E-01      0.9062456764E-01
          0                 3           1             4    7     1       0.4009561797E-04       4    7    1         0.2216378289E-02      0.6335383205E-02

    ------------------------------------------------
       NWT REQUIRED            3 OUTER ITERATIONS 
       AND A TOTAL OF          5 INNER ITERATIONS.
    ------------------------------------------------

 NO OUTPUT CONTROL FOR STRESS PERIOD   29   TIME STEP   20
 
 SOLVING FOR HEAD 
                                                   Max.-Head-Change                         Max.-Flux-Residual
  Residual-Control   Outer-Iter.   Inner-Iter.     Column Row Layer    Maximum-Head-Change  Column Row Layer    Maximum-Flux-Residual          L2-NORM 
          0                 1           2             4    7     1       0.6012885994E-02       4    7    1         0.3145121737E+00      0.8994474835E+00
          0                 2           2             4    7     1      -0.5848904276E-03       4    7    1        -0.3145125668E-01      0.8986971718E-01
          0                 3           1             4    7     1       0.3982886518E-04       4    7    1         0.2201588543E-02      0.6284032737E-02

    ------------------------------------------------
       NWT REQUIRED            3 OUTER ITERATIONS 
       AND A TOTAL OF          5 INNER ITERATIONS.
    ------------------------------------------------

 NO OUTPUT CONTROL FOR STRESS PERIOD   29   TIME STEP   21
 
 SOLVING FOR HEAD 
                                                   Max.-Head-Change                         Max.-Flux-Residual
  Residual-Control   Outer-Iter.   Inner-Iter.     Column Row Layer    Maximum-Head-Change  Column Row Layer    Maximum-Flux-Residual          L2-NORM 
          0                 1           2             4    7     1       0.5973085757E-02       4    7    1         0.3124241646E+00      0.8932924040E+00
          0                 2           2             4    7     1      -0.5810189408E-03       4    7    1        -0.3124245516E-01      0.8926319540E-01
          0                 3           1             4    7     1       0.3956523163E-04       4    7    1         0.2186972438E-02      0.6242421790E-02

    ------------------------------------------------
       NWT REQUIRED            3 OUTER ITERATIONS 
       AND A TOTAL OF          5 INNER ITERATIONS.
    ------------------------------------------------

 NO OUTPUT CONTROL FOR STRESS PERIOD   29   TIME STEP   22
 
 SOLVING FOR HEAD 
                                                   Max.-Head-Change                         Max.-Flux-Residual
  Residual-Control   Outer-Iter.   Inner-Iter.     Column Row Layer    Maximum-Head-Change  Column Row Layer    Maximum-Flux-Residual          L2-NORM 
          0                 1           2             4    7     1       0.5933612999E-02       4    7    1         0.3103532209E+00      0.8873876854E+00
          0                 2           2             4    7     1      -0.5771793089E-03       4    7    1        -0.3103536019E-01      0.8868039640E-01
          0                 3           1             4    7     1       0.3930376707E-04       4    7    1         0.2172475790E-02      0.6201983150E-02

    ------------------------------------------------
       NWT REQUIRED            3 OUTER ITERATIONS 
       AND A TOTAL OF          5 INNER ITERATIONS.
    ------------------------------------------------

 NO OUTPUT CONTROL FOR STRESS PERIOD   29   TIME STEP   23
 
 SOLVING FOR HEAD 
                                                   Max.-Head-Change                         Max.-Flux-Residual
  Residual-Control   Outer-Iter.   Inner-Iter.     Column Row Layer    Maximum-Head-Change  Column Row Layer    Maximum-Flux-Residual          L2-NORM 
          0                 1           2             4    7     1       0.5894465092E-02       4    7    1         0.3082992566E+00      0.8817031348E+00
          0                 2           2             4    7     1      -0.5733712764E-03       4    7    1        -0.3082996317E-01      0.8811899722E-01
          0                 3           1             4    7     1       0.3904445387E-04       4    7    1         0.2158097997E-02      0.6163600205E-02

    ------------------------------------------------
       NWT REQUIRED            3 OUTER ITERATIONS 
       AND A TOTAL OF          5 INNER ITERATIONS.
    ------------------------------------------------

 NO OUTPUT CONTROL FOR STRESS PERIOD   29   TIME STEP   24
 
 SOLVING FOR HEAD 
                                                   Max.-Head-Change                         Max.-Flux-Residual
  Residual-Control   Outer-Iter.   Inner-Iter.     Column Row Layer    Maximum-Head-Change  Column Row Layer    Maximum-Flux-Residual          L2-NORM 
          0                 1           2             4    7     1       0.5855778555E-02       4    7    1         0.3062694807E+00      0.8762231781E+00
          0                 2           2             4    7     1      -0.5696081224E-03       4    7    1        -0.3062698501E-01      0.8757701017E-01
          0                 3           1             4    7     1       0.3878819719E-04       4    7    1         0.2143889517E-02      0.6126198597E-02

    ------------------------------------------------
       NWT REQUIRED            3 OUTER ITERATIONS 
       AND A TOTAL OF          5 INNER ITERATIONS.
    ------------------------------------------------

 NO OUTPUT CONTROL FOR STRESS PERIOD   29   TIME STEP   25
 
 SOLVING FOR HEAD 
                                                   Max.-Head-Change                         Max.-Flux-Residual
  Residual-Control   Outer-Iter.   Inner-Iter.     Column Row Layer    Maximum-Head-Change  Column Row Layer    Maximum-Flux-Residual          L2-NORM 
          0                 1           2             4    7     1       0.5817408734E-02       4    7    1         0.3042562808E+00      0.8709162178E+00
          0                 2           2             4    7     1      -0.5658757770E-03       4    7    1        -0.3042566445E-01      0.8705131703E-01
          0                 3           1             4    7     1       0.3853403885E-04       4    7    1         0.2129797098E-02      0.6089763864E-02

    ------------------------------------------------
       NWT REQUIRED            3 OUTER ITERATIONS 
       AND A TOTAL OF          5 INNER ITERATIONS.
    ------------------------------------------------

 NO OUTPUT CONTROL FOR STRESS PERIOD   29   TIME STEP   26
 
 SOLVING FOR HEAD 
                                                   Max.-Head-Change                         Max.-Flux-Residual
  Residual-Control   Outer-Iter.   Inner-Iter.     Column Row Layer    Maximum-Head-Change  Column Row Layer    Maximum-Flux-Residual          L2-NORM 
          0                 1           2             4    7     1       0.5779491471E-02       4    7    1         0.3022668478E+00      0.8657773255E+00
          0                 2           2             4    7     1      -0.5621874526E-03       4    7    1        -0.3022672059E-01      0.8654207881E-01
          0                 3           1             4    7     1       0.3828287727E-04       4    7    1         0.2115871006E-02      0.6054589496E-02

    ------------------------------------------------
       NWT REQUIRED            3 OUTER ITERATIONS 
       AND A TOTAL OF          5 INNER ITERATIONS.
    ------------------------------------------------

 NO OUTPUT CONTROL FOR STRESS PERIOD   29   TIME STEP   27
 
 SOLVING FOR HEAD 
                                                   Max.-Head-Change                         Max.-Flux-Residual
  Residual-Control   Outer-Iter.   Inner-Iter.     Column Row Layer    Maximum-Head-Change  Column Row Layer    Maximum-Flux-Residual          L2-NORM 
          0                 1           2             4    7     1       0.5741884999E-02       4    7    1         0.3002935337E+00      0.8607758161E+00
          0                 2           2             4    7     1      -0.5585293603E-03       4    7    1        -0.3002938863E-01      0.8604595905E-01
          0                 3           1             4    7     1       0.3803377510E-04       4    7    1         0.2102057787E-02      0.6020373936E-02

    ------------------------------------------------
       NWT REQUIRED            3 OUTER ITERATIONS 
       AND A TOTAL OF          5 INNER ITERATIONS.
    ------------------------------------------------

 NO OUTPUT CONTROL FOR STRESS PERIOD   29   TIME STEP   28
 
 SOLVING FOR HEAD 
                                                   Max.-Head-Change                         Max.-Flux-Residual
  Residual-Control   Outer-Iter.   Inner-Iter.     Column Row Layer    Maximum-Head-Change  Column Row Layer    Maximum-Flux-Residual          L2-NORM 
          0                 1           2             4    7     1       0.5704585541E-02       4    7    1         0.2983363337E+00      0.8559042917E+00
          0                 2           2             4    7     1      -0.5549011313E-03       4    7    1        -0.2983366806E-01      0.8556226852E-01
          0                 3           1             4    7     1       0.3778670596E-04       4    7    1         0.2088357320E-02      0.5986751165E-02

    ------------------------------------------------
       NWT REQUIRED            3 OUTER ITERATIONS 
       AND A TOTAL OF          5 INNER ITERATIONS.
    ------------------------------------------------

 NO OUTPUT CONTROL FOR STRESS PERIOD   29   TIME STEP   29
 
 SOLVING FOR HEAD 
                                                   Max.-Head-Change                         Max.-Flux-Residual
  Residual-Control   Outer-Iter.   Inner-Iter.     Column Row Layer    Maximum-Head-Change  Column Row Layer    Maximum-Flux-Residual          L2-NORM 
          0                 1           2             4    7     1       0.5667812328E-02       4    7    1         0.2964023978E+00      0.8839011042E+00
          0                 2           2             4    7     1      -0.5513240924E-03       4    7    1        -0.2964027390E-01      0.8824405516E-01
          0                 3           1             4    7     1       0.3754312324E-04       4    7    1         0.2074819763E-02      0.6163591290E-02

    ------------------------------------------------
       NWT REQUIRED            3 OUTER ITERATIONS 
       AND A TOTAL OF          5 INNER ITERATIONS.
    ------------------------------------------------

 NO OUTPUT CONTROL FOR STRESS PERIOD   29   TIME STEP   30



 STREAM LISTING     PERIOD     29   STEP       30

 LAYER ROW COL. STREAM  RCH.  FLOW INTO     FLOW TO   FLOW OUT OF   OVRLND.     DIRECT     STREAM       STREAM     STREAM     STREAM   STREAMBED  STREAMBED
                SEG.NO.  NO.  STRM. RCH.    AQUIFER    STRM. RCH.    RUNOFF     PRECIP       ET          HEAD       DEPTH      WIDTH   CONDCTNC.   GRADIENT

   1    1    1     1     1    1.8581E+01  2.1154E-01   1.8369E+01  0.000E+00  0.000E+00  0.000E+00  1.09412E+03  1.075E+00  1.154E+01  5.191E-02  1.358E+00
   1    2    2     1     2    1.8369E+01  3.2630E-01   1.8043E+01  0.000E+00  0.000E+00  0.000E+00  1.08913E+03  1.070E+00  1.145E+01  8.016E-02  1.357E+00
   1    3    3     1     3    1.8043E+01  2.7702E-01   1.7766E+01  0.000E+00  0.000E+00  0.000E+00  1.08348E+03  1.065E+00  1.136E+01  6.814E-02  1.355E+00
   1    3    4     1     4    1.7766E+01  2.5406E-01   1.7512E+01  0.000E+00  0.000E+00  0.000E+00  1.07847E+03  1.061E+00  1.127E+01  6.256E-02  1.354E+00
   1    4    5     2     1    1.5512E+01  3.0432E-01   1.5207E+01  0.000E+00  0.000E+00  0.000E+00  1.07284E+03  9.015E-01  1.200E+01  7.800E-02  1.301E+00
   1    5    6     2     2    1.5207E+01  2.3352E-01   1.4974E+01  0.000E+00  0.000E+00  0.000E+00  1.06740E+03  8.920E-01  1.200E+01  6.000E-02  1.297E+00
   1    6    6     2     3    1.4974E+01  2.3302E-01   1.4741E+01  0.000E+00  0.000E+00  0.000E+00  1.06268E+03  8.837E-01  1.200E+01  6.000E-02  1.295E+00
   1    7    6     2     4    1.4741E+01  2.3252E-01   1.4508E+01  0.000E+00  0.000E+00  0.000E+00  1.05795E+03  8.754E-01  1.200E+01  6.000E-02  1.292E+00
   1    8    6     2     5    1.4508E+01  2.3202E-01   1.4276E+01  0.000E+00  0.000E+00  0.000E+00  1.05323E+03  8.670E-01  1.200E+01  6.000E-02  1.289E+00
   1    3    5     3     1    2.0000E+00  2.8252E-01   1.7175E+00  0.000E+00  0.000E+00  0.000E+00  1.07555E+03  1.909E+00  9.636E+00  7.227E-02  1.955E+00
   1    3    6     3     2    1.7175E+00  2.4905E-01   1.4684E+00  0.000E+00  0.000E+00  0.000E+00  1.07264E+03  1.727E+00  8.909E+00  6.682E-02  1.864E+00
   1    3    7     3     3    1.4684E+00  1.9718E-01   1.2712E+00  0.000E+00  0.000E+00  0.000E+00  1.06987E+03  1.555E+00  8.218E+00  5.547E-02  1.777E+00
   1    4    8     3     4    1.2712E+00  2.2567E-01   1.0456E+00  0.000E+00  0.000E+00  0.000E+00  1.06682E+03  1.364E+00  7.455E+00  6.709E-02  1.682E+00
   1    5    8     3     5    1.0456E+00  1.5790E-01   8.8768E-01  0.000E+00  0.000E+00  0.000E+00  1.06362E+03  1.164E+00  6.655E+00  4.991E-02  1.582E+00
   1    6    8     3     6    8.8768E-01  5.5980E-02   8.3170E-01  0.000E+00  0.000E+00  0.000E+00  1.06158E+03  1.036E+00  6.145E+00  1.844E-02  1.518E+00
   1    5   10     4     1    1.0000E+01  9.0919E-02   9.9091E+00  0.000E+00  0.000E+00  0.000E+00  1.07836E+03  6.368E-01  1.000E+01  2.500E-02  1.212E+00
   1    5    9     4     2    9.9091E+00  1.8158E-01   9.7275E+00  0.000E+00  0.000E+00  0.000E+00  1.07154E+03  6.315E-01  1.000E+01  5.000E-02  1.211E+00
   1    6    8     4     3    9.7275E+00  1.2689E-01   9.6006E+00  0.000E+00  0.000E+00  0.000E+00  1.06381E+03  6.256E-01  1.000E+01  3.500E-02  1.209E+00
   1    6    8     5     1    1.0432E+01  2.2686E-01   1.0205E+01  0.000E+00  0.000E+00  0.000E+00  1.05868E+03  6.790E-01  1.542E+01  6.166E-02  1.226E+00
   1    7    7     5     2    1.0205E+01  2.7894E-01   9.9265E+00  0.000E+00  0.000E+00  0.000E+00  1.05417E+03  6.732E-01  1.519E+01  7.594E-02  1.224E+00
   1    8    7     5     3    9.9265E+00  1.9221E-01   9.7343E+00  0.000E+00  0.000E+00  0.000E+00  1.04992E+03  6.676E-01  1.497E+01  5.241E-02  1.223E+00
   1    8    6     5     4    9.7343E+00  1.3577E-01   9.5985E+00  0.000E+00  0.000E+00  0.000E+00  1.04691E+03  6.637E-01  1.482E+01  3.706E-02  1.221E+00
   1    9    6     6     1    2.3875E+01  2.5104E-01   2.3624E+01  0.000E+00  0.000E+00  0.000E+00  1.04391E+03  1.184E+00  1.200E+01  6.000E-02  1.395E+00
   1   10    7     6     2    2.3624E+01  2.5059E-01   2.3373E+01  0.000E+00  0.000E+00  0.000E+00  1.03936E+03  1.177E+00  1.200E+01  6.000E-02  1.392E+00
   1   11    7     6     3    2.3373E+01  2.5014E-01   2.3123E+01  0.000E+00  0.000E+00  0.000E+00  1.03481E+03  1.169E+00  1.200E+01  6.000E-02  1.390E+00
   1   12    7     6     4    2.3123E+01  2.4969E-01   2.2873E+01  0.000E+00  0.000E+00  0.000E+00  1.03025E+03  1.161E+00  1.200E+01  6.000E-02  1.387E+00
   1   13    7     6     5    2.2873E+01  8.6852E-03   2.2865E+01  0.000E+00  0.000E+00  0.000E+00  1.02707E+03  1.157E+00  1.200E+01  2.400E-02  1.206E-01
   1   14    9     7     1    1.5000E+02  1.3781E+00   1.4862E+02  0.000E+00  0.000E+00  0.000E+00  1.03987E+03  2.288E+00  5.529E+01  5.593E-01  8.213E-01
   1   13    8     7     2    1.4862E+02  1.9570E+00   1.4666E+02  0.000E+00  0.000E+00  0.000E+00  1.03478E+03  2.279E+00  5.525E+01  6.147E-01  1.061E+00
   1   13    7     7     3    1.4666E+02  1.6660E+00   1.4500E+02  0.000E+00  0.000E+00  0.000E+00  1.02969E+03  2.269E+00  5.521E+01  5.584E-01  9.946E-01
   1   13    6     8     1    1.6786E+02  1.0972E+00   1.6677E+02  0.000E+00  0.000E+00  0.000E+00  1.02481E+03  2.935E+00  4.255E+01  4.336E-01  8.435E-01
   1   13    5     8     2    1.6677E+02  3.3319E-01   1.6643E+02  0.000E+00  0.000E+00  0.000E+00  1.01855E+03  2.930E+00  4.248E+01  4.329E-01  2.565E-01
   1   13    4     8     3    1.6643E+02 -1.8260E+00   1.6826E+02  0.000E+00  0.000E+00  0.000E+00  1.01231E+03  2.935E+00  4.256E+01  4.337E+00 -1.404E-01
   1   13    3     8     4    1.6826E+02 -3.2994E+00   1.7156E+02  0.000E+00  0.000E+00  0.000E+00  1.00608E+03  2.952E+00  4.280E+01  4.361E+00 -2.522E-01
   1   13    2     8     5    1.7156E+02 -2.4052E+00   1.7396E+02  0.000E+00  0.000E+00  0.000E+00  9.99845E+02  2.970E+00  4.307E+01  4.389E+00 -1.827E-01
   1   13    1     8     6    1.7396E+02 -1.9220E+00   1.7589E+02  0.000E+00  0.000E+00  0.000E+00  9.94859E+02  2.984E+00  4.327E+01  2.645E+00 -2.422E-01
   1    8    6     9     1    0.0000E+00  0.0000E+00   0.0000E+00  0.000E+00  0.000E+00  0.000E+00  1.07875E+03  0.000E+00  4.000E+00  0.000E+00  1.000E+00
   1    8    5     9     2    0.0000E+00  0.0000E+00   0.0000E+00  0.000E+00  0.000E+00  0.000E+00  1.07825E+03  0.000E+00  4.000E+00  0.000E+00  1.000E+00





UNSATURATED ZONE PACKAGE VOLUMETRIC BUDGET FOR  TIME STEP    30 STRESS PERIOD   29
  ------------------------------------------------------------------------------



     CUMULATIVE VOLUMES      L**3       RATES FOR THIS TIME STEP      L**3/T
     ------------------                 ------------------------

           IN:                                      IN:
           ---                                      ---
        INFILTRATION =   873230488.4061          INFILTRATION =           0.8475

          OUT:                                     OUT:
          ----                                     ----
              UZF ET =   869418169.4417                UZF ET =           0.8475
        UZF RECHARGE =       73224.0000          UZF RECHARGE =       0.0000E+00

            IN - OUT =     3739094.9643              IN - OUT =       0.0000E+00

          STORAGE:                                 STORAGE:
          --------                                 --------
      STORAGE CHANGE =     3739093.6594        STORAGE CHANGE =      -5.8927E-15

 PERCENT DISCREPANCY IS DIFFERENCE BETWEEN IN-OUT MINUS CHANGE IN STORAGE
 DIVIDED BY THE AVERAGE OF IN AND OUT TIMES 100

 PERCENT DISCREPANCY =           0.00     PERCENT DISCREPANCY =           0.00






1
  VOLUMETRIC BUDGET FOR AGRICULTURAL FIELDS AT  END OF TIME STEP   30, STRESS PERIOD  29
  ------------------------------------------------------------------------------

     CUMULATIVE VOLUMES      L**3       RATES FOR THIS TIME STEP      L**3/T
     ------------------                 ------------------------

           IN:                                      IN:
           ---                                      ---
           AG WELLS      =   428269280.0000             AG WELLS      =           0.0000
      DIVERSION SEGMENTS =   382511616.0000        DIVERSION SEGMENTS =           0.0000
           GW IRRIGATION =           0.0000             GW IRRIGATION =           0.0000
           SW IRRIGATION =           0.0000             SW IRRIGATION =           0.0000
        SYSTEM LOSSES GW =           0.0000          SYSTEM LOSSES GW =           0.0000
        SYSTEM LOSSES SW =           0.0000          SYSTEM LOSSES SW =           0.0000

                TOTAL IN =   810780928.0000                  TOTAL IN =           0.0000

          OUT:                                     OUT:
          ----                                     ----
           AG WELLS      =           0.0000             AG WELLS      =           0.0000
      DIVERSION SEGMENTS =           0.0000        DIVERSION SEGMENTS =           0.0000
           GW IRRIGATION =   428269280.0000             GW IRRIGATION =           0.0000
           SW IRRIGATION =   382519104.0000             SW IRRIGATION =           0.0000
        SYSTEM LOSSES GW =           0.0000          SYSTEM LOSSES GW =           0.0000
        SYSTEM LOSSES SW =           0.0000          SYSTEM LOSSES SW =           0.0000

               TOTAL OUT =   810788352.0000                 TOTAL OUT =           0.0000

                IN - OUT =       -7424.0000                  IN - OUT =           0.0000

     PERCENT DISCREPANCY =          -0.00         PERCENT DISCREPANCY =           0.00



1
  VOLUMETRIC BUDGET FOR ENTIRE MODEL AT END OF TIME STEP   30, STRESS PERIOD  29
  ------------------------------------------------------------------------------

     CUMULATIVE VOLUMES      L**3       RATES FOR THIS TIME STEP      L**3/T
     ------------------                 ------------------------

           IN:                                      IN:
           ---                                      ---
             STORAGE     =   642612224.0000               STORAGE     =           1.7121
       CONSTANT HEAD     =           0.0000         CONSTANT HEAD     =           0.0000
     HEAD DEP BOUNDS     =    21243688.0000       HEAD DEP BOUNDS     =           0.2886
      STREAM LEAKAGE     =   863683264.0000        STREAM LEAKAGE     =          12.1475
        UZF RECHARGE     =       73223.9531          UZF RECHARGE     =           0.0000
               GW ET     =           0.0000                 GW ET     =           0.0000
     SURFACE LEAKAGE     =           0.0000       SURFACE LEAKAGE     =           0.0000
           AG WELLS      =           0.0000             AG WELLS      =           0.0000

                TOTAL IN =  1527612416.0000                  TOTAL IN =          14.1482

          OUT:                                     OUT:
          ----                                     ----
             STORAGE     =   327159776.0000               STORAGE     =           4.4081
       CONSTANT HEAD     =           0.0000         CONSTANT HEAD     =           0.0000
     HEAD DEP BOUNDS     =    21225500.0000       HEAD DEP BOUNDS     =           0.2882
      STREAM LEAKAGE     =   750969792.0000        STREAM LEAKAGE     =           9.4526
        UZF RECHARGE     =           0.0000          UZF RECHARGE     =           0.0000
               GW ET     =           0.0000                 GW ET     =           0.0000
     SURFACE LEAKAGE     =           0.0000       SURFACE LEAKAGE     =           0.0000
           AG WELLS      =   428269280.0000             AG WELLS      =           0.0000

               TOTAL OUT =  1527624448.0000                 TOTAL OUT =          14.1490

                IN - OUT =      -12032.0000                  IN - OUT =      -7.6580E-04

     PERCENT DISCREPANCY =          -0.00         PERCENT DISCREPANCY =          -0.01






         TIME SUMMARY AT END OF TIME STEP   30 IN STRESS PERIOD   29
                    SECONDS     MINUTES      HOURS       DAYS        YEARS
                    -----------------------------------------------------------
   TIME STEP LENGTH  87667.      1461.1      24.352      1.0147     2.77799E-03
 STRESS PERIOD TIME 2.63000E+06  43833.      730.56      30.440     8.33397E-02
         TOTAL TIME 7.37266E+07 1.22878E+06  20480.      853.32      2.3363    
1
1
                            STRESS PERIOD NO.   30, LENGTH =   2630000.    
                            -----------------------------------------------

                              NUMBER OF TIME STEPS =    30

                               MULTIPLIER FOR DELT =     1.000

                            INITIAL TIME STEP SIZE =   87666.66    

 REUSING NON-PARAMETER GHB CELLS FROM LAST STRESS PERIOD

      2 GHB CELLS

 REUSING STREAM SEGMENT DATA FROM LAST STRESS PERIOD



            AREAL INFILTRATION RATE
 READING ON UNIT   19 WITH FORMAT: (FREE)              

            1           2           3           4           5           6           7           8           9          10
 ........................................................................................................................
   1   1.0000E-10  2.0000E-10   0.000       0.000       0.000       0.000       0.000       0.000       0.000       0.000    
   2   2.0000E-10  1.0000E-10  2.0000E-10   0.000       0.000      8.0000E-10  8.0000E-10  5.0000E-10   0.000       0.000    
   3    0.000      5.0000E-10  1.0000E-10  1.0000E-10  8.0000E-10  8.0000E-10  5.0000E-10  5.0000E-10   0.000       0.000    
   4   8.0000E-10  5.0000E-10  1.0000E-10  1.0000E-10  1.0000E-10  1.0000E-10  1.0000E-10  1.0000E-10  2.0000E-10   0.000    
   5   8.0000E-10  5.0000E-10  1.0000E-10  1.0000E-10  1.0000E-10  1.0000E-10  1.0000E-10  1.0000E-10  1.0000E-10  1.0000E-10
   6   8.0000E-10  5.0000E-10  5.0000E-10  2.0000E-10  2.0000E-10  1.0000E-10  1.0000E-10  1.0000E-10  1.0000E-10  5.0000E-10
   7   8.0000E-10  5.0000E-10  5.0000E-10  2.0000E-10  2.0000E-10  1.0000E-10  1.0000E-10  2.0000E-10  2.0000E-10   0.000    
   8    0.000      5.0000E-10  5.0000E-10  2.0000E-10  2.0000E-10  1.0000E-10  1.0000E-10  2.0000E-10  5.0000E-10   0.000    
   9    0.000      5.0000E-10  5.0000E-10  2.0000E-10  2.0000E-10  1.0000E-10  1.0000E-10  2.0000E-10  5.0000E-10   0.000    
  10    0.000      5.0000E-10  5.0000E-10  2.0000E-10  2.0000E-10  1.0000E-10  1.0000E-10  2.0000E-10  5.0000E-10  8.0000E-10
  11    0.000      1.0000E-10  1.0000E-10  1.0000E-10  1.0000E-10  1.0000E-10  1.0000E-10  2.0000E-10  5.0000E-10   0.000    
  12   1.0000E-10  1.0000E-10  1.0000E-10  1.0000E-10  1.0000E-10  1.0000E-10  1.0000E-10  1.0000E-10  2.0000E-10   0.000    
  13   1.0000E-10  1.0000E-10  2.0000E-10  2.0000E-10  2.0000E-10  2.0000E-10  2.0000E-10  1.0000E-10  1.0000E-10   0.000    
  14    0.000      2.0000E-10  5.0000E-10  5.0000E-10  5.0000E-10  5.0000E-10  5.0000E-10  2.0000E-10  1.0000E-10   0.000    
  15    0.000       0.000      8.0000E-10  8.0000E-10  8.0000E-10  8.0000E-10   0.000       0.000       0.000       0.000    

                  ET RATE =  5.000000E-08

 USING ET EXTINCTION DEPTH FROM PREVIOUS STRESS PERIOD. CURRENT PERIOD IS:      30

 USING EXTINCTION WATER CONTENT FROM PREVIOUS STRESS PERIOD. CURRENT PERIOD IS:      30

 USING AIR ENTRY PRESSURE FROM PREVIOUS STRESS PERIOD. CURRENT PERIOD IS:      30

 USING ROOT PRESSURE HEAD FROM PREVIOUS STRESS PERIOD. CURRENT PERIOD IS:      30

 USING ROOT ACTIVITY FROM PREVIOUS STRESS PERIOD. CURRENT PERIOD IS:      30

 PROCESSING AG STRESS PERIOD DATA

 READING AG STRESS PERIOD DATA

 READING IRRIGATION SEGMENT

 READING IRRIGATION WELL

 READING SUPPLEMENTAL WELL

 END PROCESSING AG STRESS PERIOD DATA OPTIONS
 
 SOLVING FOR HEAD 
                                                   Max.-Head-Change                         Max.-Flux-Residual
  Residual-Control   Outer-Iter.   Inner-Iter.     Column Row Layer    Maximum-Head-Change  Column Row Layer    Maximum-Flux-Residual          L2-NORM 
          0                 1           2             4   13     1       0.6634180642E-02       4   13    1         0.3814097462E+00      0.1110923894E+01
          0                 2           2             4    7     1      -0.2373057785E-01       4    7    1        -0.1274449613E+01      0.3133005395E+01
          0                 3           2             4    7     1       0.2416825756E-01       4    7    1         0.1334210944E+01      0.3267488184E+01
          0                 4           2             4    7     1      -0.9616872633E-03       4    7    1        -0.5456989617E-01      0.1336418330E+00
          0                 5           1             4    7     1       0.1185800534E-04       4    7    1         0.6915678537E-03      0.1693644725E-02

    ------------------------------------------------
       NWT REQUIRED            5 OUTER ITERATIONS 
       AND A TOTAL OF          9 INNER ITERATIONS.
    ------------------------------------------------

 NO OUTPUT CONTROL FOR STRESS PERIOD   30   TIME STEP    1
 
 SOLVING FOR HEAD 
                                                   Max.-Head-Change                         Max.-Flux-Residual
  Residual-Control   Outer-Iter.   Inner-Iter.     Column Row Layer    Maximum-Head-Change  Column Row Layer    Maximum-Flux-Residual          L2-NORM 
          0                 1           2             4   13     1       0.9441998700E-02       4   13    1         0.5429445845E+00      0.1286377980E+01
          0                 2           2             4   13     1      -0.9090491342E-03       4   13    1        -0.5374712736E-01      0.1267904763E+00
          0                 3           1             4   13     1       0.6101639360E-04       4   13    1         0.3709218636E-02      0.8704300308E-02

    ------------------------------------------------
       NWT REQUIRED            3 OUTER ITERATIONS 
       AND A TOTAL OF          5 INNER ITERATIONS.
    ------------------------------------------------

 NO OUTPUT CONTROL FOR STRESS PERIOD   30   TIME STEP    2
 
 SOLVING FOR HEAD 
                                                   Max.-Head-Change                         Max.-Flux-Residual
  Residual-Control   Outer-Iter.   Inner-Iter.     Column Row Layer    Maximum-Head-Change  Column Row Layer    Maximum-Flux-Residual          L2-NORM 
          0                 1           2             4   13     1       0.8539019754E-02       4   13    1         0.4907698856E+00      0.1233200963E+01
          0                 2           2             4    7     1      -0.2372368661E-01       4    7    1        -0.1274076212E+01      0.3135057413E+01
          0                 3           2             4    7     1       0.2416778097E-01       4    7    1         0.1334184806E+01      0.3267458919E+01
          0                 4           2             4    7     1      -0.9616682982E-03       4    7    1        -0.5456882708E-01      0.1336405511E+00
          0                 5           1             4    7     1       0.1185777100E-04       4    7    1         0.6915542867E-03      0.1693635171E-02

    ------------------------------------------------
       NWT REQUIRED            5 OUTER ITERATIONS 
       AND A TOTAL OF          9 INNER ITERATIONS.
    ------------------------------------------------

 NO OUTPUT CONTROL FOR STRESS PERIOD   30   TIME STEP    3
 
 SOLVING FOR HEAD 
                                                   Max.-Head-Change                         Max.-Flux-Residual
  Residual-Control   Outer-Iter.   Inner-Iter.     Column Row Layer    Maximum-Head-Change  Column Row Layer    Maximum-Flux-Residual          L2-NORM 
          0                 1           2             4   13     1       0.8022095356E-02       4   13    1         0.4609095253E+00      0.1201907481E+01
          0                 2           2             4   13     1      -0.7723074478E-03       4   13    1        -0.4562376468E-01      0.1186854256E+00
          0                 3           2             4    7     1      -0.2314533855E-01       5    6    1        -0.1243481890E+01      0.3059998986E+01
          0                 4           2             4    7     1       0.2412882539E-01       5    6    1         0.1332055822E+01      0.3262880538E+01
          0                 5           2             4    7     1      -0.9603458630E-03       5    8    1        -0.5449516656E-01      0.1334851261E+00
          0                 6           1             4    7     1       0.1185025626E-04       5    8    1         0.6911325156E-03      0.1692910317E-02

    ------------------------------------------------
       NWT REQUIRED            6 OUTER ITERATIONS 
       AND A TOTAL OF         11 INNER ITERATIONS.
    ------------------------------------------------

 NO OUTPUT CONTROL FOR STRESS PERIOD   30   TIME STEP    4
 
 SOLVING FOR HEAD 
                                                   Max.-Head-Change                         Max.-Flux-Residual
  Residual-Control   Outer-Iter.   Inner-Iter.     Column Row Layer    Maximum-Head-Change  Column Row Layer    Maximum-Flux-Residual          L2-NORM 
          0                 1           2             4   13     1       0.7556401635E-02       4   13    1         0.4340166084E+00      0.1173709967E+01
          0                 2           2             4   13     1      -0.7274578495E-03       4   13    1        -0.4296065867E-01      0.1159774450E+00
          0                 3           2             4    7     1      -0.2314556208E-01       5    6    1        -0.1243486000E+01      0.3060002326E+01
          0                 4           2             4    7     1       0.2412883272E-01       5    6    1         0.1332055871E+01      0.3262881308E+01
          0                 5           2             4    7     1      -0.9603461547E-03       5    8    1        -0.5449517015E-01      0.1334851547E+00
          0                 6           1             4    7     1       0.1185026006E-04       5    8    1         0.6911325645E-03      0.1692909695E-02

    ------------------------------------------------
       NWT REQUIRED            6 OUTER ITERATIONS 
       AND A TOTAL OF         11 INNER ITERATIONS.
    ------------------------------------------------

 NO OUTPUT CONTROL FOR STRESS PERIOD   30   TIME STEP    5
 
 SOLVING FOR HEAD 
                                                   Max.-Head-Change                         Max.-Flux-Residual
  Residual-Control   Outer-Iter.   Inner-Iter.     Column Row Layer    Maximum-Head-Change  Column Row Layer    Maximum-Flux-Residual          L2-NORM 
          0                 1           2             4   13     1       0.7136671387E-02       4   13    1         0.4097855431E+00      0.1148251242E+01
          0                 2           2             4   13     1      -0.6870355824E-03       4   13    1        -0.4056118431E-01      0.1135331595E+00
          0                 3           2             4    7     1      -0.2314578244E-01       5    6    1        -0.1243490223E+01      0.3060006801E+01
          0                 4           2             4    7     1       0.2412883987E-01       5    6    1         0.1332055928E+01      0.3262882019E+01
          0                 5           2             4    7     1      -0.9603464393E-03       5    8    1        -0.5449517408E-01      0.1334851889E+00
          0                 6           1             4    7     1       0.1185026365E-04       5    8    1         0.6911326184E-03      0.1692915353E-02

    ------------------------------------------------
       NWT REQUIRED            6 OUTER ITERATIONS 
       AND A TOTAL OF         11 INNER ITERATIONS.
    ------------------------------------------------

 NO OUTPUT CONTROL FOR STRESS PERIOD   30   TIME STEP    6
 
 SOLVING FOR HEAD 
                                                   Max.-Head-Change                         Max.-Flux-Residual
  Residual-Control   Outer-Iter.   Inner-Iter.     Column Row Layer    Maximum-Head-Change  Column Row Layer    Maximum-Flux-Residual          L2-NORM 
          0                 1           2             4   13     1       0.6758246626E-02       4   13    1         0.3879460329E+00      0.1125210234E+01
          0                 2           2             4   13     1      -0.6505663833E-03       4   13    1        -0.3839706961E-01      0.1113197419E+00
          0                 3           2             4    7     1      -0.2314600006E-01       5    6    1        -0.1243494583E+01      0.3060012563E+01
          0                 4           2             4    7     1       0.2412884686E-01       5    6    1         0.1332055995E+01      0.3262882749E+01
          0                 5           2             4    7     1      -0.9603467180E-03       5    8    1        -0.5449517853E-01      0.1334852181E+00
          0                 6           1             4    7     1       0.1185026723E-04       5    8    1         0.6911326668E-03      0.1692911772E-02

    ------------------------------------------------
       NWT REQUIRED            6 OUTER ITERATIONS 
       AND A TOTAL OF         11 INNER ITERATIONS.
    ------------------------------------------------

 NO OUTPUT CONTROL FOR STRESS PERIOD   30   TIME STEP    7
 
 SOLVING FOR HEAD 
                                                   Max.-Head-Change                         Max.-Flux-Residual
  Residual-Control   Outer-Iter.   Inner-Iter.     Column Row Layer    Maximum-Head-Change  Column Row Layer    Maximum-Flux-Residual          L2-NORM 
          0                 1           2             4   13     1       0.6417037043E-02       4   13    1         0.3682605022E+00      0.1104319775E+01
          0                 2           2             4   13     1      -0.6177260309E-03       4   13    1        -0.3644891201E-01      0.1093138504E+00
          0                 3           2             4    7     1      -0.2314621916E-01       5    6    1        -0.1243499230E+01      0.3060019608E+01
          0                 4           2             4    7     1       0.2412885831E-01       5    6    1         0.1332056320E+01      0.3262884087E+01
          0                 5           2             4    7     1      -0.9603471734E-03       5    8    1        -0.5449519382E-01      0.1334852734E+00
          0                 6           1             4    7     1       0.1185027250E-04       5    8    1         0.6911328601E-03      0.1692914853E-02

    ------------------------------------------------
       NWT REQUIRED            6 OUTER ITERATIONS 
       AND A TOTAL OF         11 INNER ITERATIONS.
    ------------------------------------------------

 NO OUTPUT CONTROL FOR STRESS PERIOD   30   TIME STEP    8
 
 SOLVING FOR HEAD 
                                                   Max.-Head-Change                         Max.-Flux-Residual
  Residual-Control   Outer-Iter.   Inner-Iter.     Column Row Layer    Maximum-Head-Change  Column Row Layer    Maximum-Flux-Residual          L2-NORM 
          0                 1           2             4   13     1       0.6109120778E-02       4   13    1         0.3505016455E+00      0.1085316052E+01
          0                 2           2             4   13     1      -0.5880878772E-03       4   13    1        -0.3469131542E-01      0.1074880358E+00
          0                 3           2             4    7     1      -0.2314642790E-01       5    6    1        -0.1243503585E+01      0.3060026826E+01
          0                 4           2             4    7     1       0.2412886261E-01       5    6    1         0.1332056268E+01      0.3262884488E+01
          0                 5           2             4    7     1      -0.9603473447E-03       5    8    1        -0.5449519375E-01      0.1334852926E+00
          0                 6           1             4    7     1       0.1185027463E-04       5    8    1         0.6911328626E-03      0.1692919443E-02

    ------------------------------------------------
       NWT REQUIRED            6 OUTER ITERATIONS 
       AND A TOTAL OF         11 INNER ITERATIONS.
    ------------------------------------------------

 NO OUTPUT CONTROL FOR STRESS PERIOD   30   TIME STEP    9
 
 SOLVING FOR HEAD 
                                                   Max.-Head-Change                         Max.-Flux-Residual
  Residual-Control   Outer-Iter.   Inner-Iter.     Column Row Layer    Maximum-Head-Change  Column Row Layer    Maximum-Flux-Residual          L2-NORM 
          0                 1           2             4   13     1       0.5831271643E-02       4   13    1         0.3344822320E+00      0.1068002578E+01
          0                 2           2             4   13     1      -0.5613238696E-03       4   13    1        -0.3310468452E-01      0.1058237671E+00
          0                 3           2             4    7     1      -0.2314663832E-01       5    6    1        -0.1243508279E+01      0.3060035460E+01
          0                 4           2             4    7     1       0.2412887137E-01       5    6    1         0.1332056477E+01      0.3262885519E+01
          0                 5           2             4    7     1      -0.9603476932E-03       5    8    1        -0.5449520431E-01      0.1334853358E+00
          0                 6           1             4    7     1       0.1185027900E-04       5    8    1         0.6911329831E-03      0.1692914891E-02

    ------------------------------------------------
       NWT REQUIRED            6 OUTER ITERATIONS 
       AND A TOTAL OF         11 INNER ITERATIONS.
    ------------------------------------------------

 NO OUTPUT CONTROL FOR STRESS PERIOD   30   TIME STEP   10
 
 SOLVING FOR HEAD 
                                                   Max.-Head-Change                         Max.-Flux-Residual
  Residual-Control   Outer-Iter.   Inner-Iter.     Column Row Layer    Maximum-Head-Change  Column Row Layer    Maximum-Flux-Residual          L2-NORM 
          0                 1           2             2   13     1       0.5607886425E-02       4   13    1         0.3200248422E+00      0.1052180761E+01
          0                 2           2             4   13     1      -0.5371487209E-03       4   13    1        -0.3167200447E-01      0.1043014507E+00
          0                 3           2             4    7     1      -0.2314684577E-01       5    6    1        -0.1243513051E+01      0.3060044730E+01
          0                 4           2             4    7     1       0.2412887996E-01       5    6    1         0.1332056692E+01      0.3262886536E+01
          0                 5           2             4    7     1      -0.9603480353E-03       5    8    1        -0.5449521530E-01      0.1334853782E+00
          0                 6           1             4    7     1       0.1185028336E-04       5    8    1         0.6911331338E-03      0.1692917922E-02

    ------------------------------------------------
       NWT REQUIRED            6 OUTER ITERATIONS 
       AND A TOTAL OF         11 INNER ITERATIONS.
    ------------------------------------------------

 NO OUTPUT CONTROL FOR STRESS PERIOD   30   TIME STEP   11
 
 SOLVING FOR HEAD 
                                                   Max.-Head-Change                         Max.-Flux-Residual
  Residual-Control   Outer-Iter.   Inner-Iter.     Column Row Layer    Maximum-Head-Change  Column Row Layer    Maximum-Flux-Residual          L2-NORM 
          0                 1           2             2   13     1       0.5401585858E-02       4   13    1         0.3069721669E+00      0.1037675940E+01
          0                 2           2             4   13     1      -0.5153350949E-03       4   13    1        -0.3037973208E-01      0.1029057324E+00
          0                 3           2             4    7     1      -0.2314704967E-01       5    6    1        -0.1243517822E+01      0.3060054396E+01
          0                 4           2             4    7     1       0.2412888617E-01       5    6    1         0.1332056787E+01      0.3262887242E+01
          0                 5           2             4    7     1      -0.9603482827E-03       5    8    1        -0.5449522129E-01      0.1334854025E+00
          0                 6           1             4    7     1       0.1185028628E-04       5    8    1         0.6911332007E-03      0.1692915753E-02

    ------------------------------------------------
       NWT REQUIRED            6 OUTER ITERATIONS 
       AND A TOTAL OF         11 INNER ITERATIONS.
    ------------------------------------------------

 NO OUTPUT CONTROL FOR STRESS PERIOD   30   TIME STEP   12
 
 SOLVING FOR HEAD 
                                                   Max.-Head-Change                         Max.-Flux-Residual
  Residual-Control   Outer-Iter.   Inner-Iter.     Column Row Layer    Maximum-Head-Change  Column Row Layer    Maximum-Flux-Residual          L2-NORM 
          0                 1           2             4    7     1       0.5236206743E-02       4   13    1         0.2951807089E+00      0.1024353430E+01
          0                 2           2             4    7     1      -0.5093412235E-03       4   13    1        -0.2921252822E-01      0.1016227206E+00
          0                 3           2             4    7     1      -0.2314724864E-01       5    6    1        -0.1243522539E+01      0.3060064670E+01
          0                 4           2             4    7     1       0.2412889208E-01       5    6    1         0.1332056879E+01      0.3262887938E+01
          0                 5           2             4    7     1      -0.9603485177E-03       5    8    1        -0.5449522731E-01      0.1334854355E+00
          0                 6           1             4    7     1       0.1185028885E-04       5    8    1         0.6911332791E-03      0.1692913901E-02

    ------------------------------------------------
       NWT REQUIRED            6 OUTER ITERATIONS 
       AND A TOTAL OF         11 INNER ITERATIONS.
    ------------------------------------------------

 NO OUTPUT CONTROL FOR STRESS PERIOD   30   TIME STEP   13
 
 SOLVING FOR HEAD 
                                                   Max.-Head-Change                         Max.-Flux-Residual
  Residual-Control   Outer-Iter.   Inner-Iter.     Column Row Layer    Maximum-Head-Change  Column Row Layer    Maximum-Flux-Residual          L2-NORM 
          0                 1           2             4    7     1       0.5206052417E-02       4   13    1         0.2845324378E+00      0.1012075623E+01
          0                 2           2             4    7     1      -0.5064080259E-03       4   13    1        -0.2815846951E-01      0.1004483467E+00
          0                 3           2             4    7     1      -0.2314744614E-01       5    6    1        -0.1243527397E+01      0.3060075350E+01
          0                 4           2             4    7     1       0.2412889792E-01       5    6    1         0.1332056981E+01      0.3262888644E+01
          0                 5           2             4    7     1      -0.9603487501E-03       5    8    1        -0.5449523374E-01      0.1334854579E+00
          0                 6           1             4    7     1       0.1185029233E-04       5    8    1         0.6911333667E-03      0.1692925892E-02

    ------------------------------------------------
       NWT REQUIRED            6 OUTER ITERATIONS 
       AND A TOTAL OF         11 INNER ITERATIONS.
    ------------------------------------------------

 NO OUTPUT CONTROL FOR STRESS PERIOD   30   TIME STEP   14
 
 SOLVING FOR HEAD 
                                                   Max.-Head-Change                         Max.-Flux-Residual
  Residual-Control   Outer-Iter.   Inner-Iter.     Column Row Layer    Maximum-Head-Change  Column Row Layer    Maximum-Flux-Residual          L2-NORM 
          0                 1           2             4    7     1       0.5176199516E-02       4   13    1         0.2749078786E+00      0.1000723453E+01
          0                 2           2             4    7     1      -0.5035034573E-03       4   13    1        -0.2720552533E-01      0.9934581004E-01
          0                 3           2             4    7     1      -0.2314764235E-01       5    6    1        -0.1243532339E+01      0.3060086565E+01
          0                 4           2             4    7     1       0.2412890370E-01       5    6    1         0.1332057088E+01      0.3262889346E+01
          0                 5           2             4    7     1      -0.9603489800E-03       5    8    1        -0.5449524041E-01      0.1334854915E+00
          0                 6           1             4    7     1       0.1185029513E-04       5    8    1         0.6911334497E-03      0.1692916647E-02

    ------------------------------------------------
       NWT REQUIRED            6 OUTER ITERATIONS 
       AND A TOTAL OF         11 INNER ITERATIONS.
    ------------------------------------------------

 NO OUTPUT CONTROL FOR STRESS PERIOD   30   TIME STEP   15
 
 SOLVING FOR HEAD 
                                                   Max.-Head-Change                         Max.-Flux-Residual
  Residual-Control   Outer-Iter.   Inner-Iter.     Column Row Layer    Maximum-Head-Change  Column Row Layer    Maximum-Flux-Residual          L2-NORM 
          0                 1           2             4    7     1       0.5146908894E-02       4    7    1         0.2689554506E+00      0.9901892823E+00
          0                 2           2             4    7     1      -0.5006549594E-03       4    7    1        -0.2689560801E-01      0.9832701195E-01
          0                 3           2             4    7     1      -0.2314783551E-01       5    6    1        -0.1243537361E+01      0.3060098793E+01
          0                 4           2             4    7     1       0.2412891146E-01       5    6    1         0.1332057321E+01      0.3262890349E+01
          0                 5           2             4    7     1      -0.9603492886E-03       5    8    1        -0.5449525219E-01      0.1334855358E+00
          0                 6           1             4    7     1       0.1185029871E-04       5    8    1         0.6911335913E-03      0.1692917252E-02

    ------------------------------------------------
       NWT REQUIRED            6 OUTER ITERATIONS 
       AND A TOTAL OF         11 INNER ITERATIONS.
    ------------------------------------------------

 NO OUTPUT CONTROL FOR STRESS PERIOD   30   TIME STEP   16
 
 SOLVING FOR HEAD 
                                                   Max.-Head-Change                         Max.-Flux-Residual
  Residual-Control   Outer-Iter.   Inner-Iter.     Column Row Layer    Maximum-Head-Change  Column Row Layer    Maximum-Flux-Residual          L2-NORM 
          0                 1           2             4    7     1       0.5117755392E-02       4    7    1         0.2674220644E+00      0.9803966847E+00
          0                 2           2             4    7     1      -0.4978191126E-03       4    7    1        -0.2674226900E-01      0.9738106383E-01
          0                 3           2             4    7     1      -0.2314802850E-01       5    6    1        -0.1243542516E+01      0.3060111078E+01
          0                 4           2             4    7     1       0.2412891922E-01       5    6    1         0.1332057563E+01      0.3262891336E+01
          0                 5           2             4    7     1      -0.9603495980E-03       5    8    1        -0.5449526418E-01      0.1334855737E+00
          0                 6           1             4    7     1       0.1185030274E-04       5    8    1         0.6911337521E-03      0.1692919537E-02

    ------------------------------------------------
       NWT REQUIRED            6 OUTER ITERATIONS 
       AND A TOTAL OF         11 INNER ITERATIONS.
    ------------------------------------------------

 NO OUTPUT CONTROL FOR STRESS PERIOD   30   TIME STEP   17
 
 SOLVING FOR HEAD 
                                                   Max.-Head-Change                         Max.-Flux-Residual
  Residual-Control   Outer-Iter.   Inner-Iter.     Column Row Layer    Maximum-Head-Change  Column Row Layer    Maximum-Flux-Residual          L2-NORM 
          0                 1           2             4    7     1       0.5089010857E-02       4    7    1         0.2659104823E+00      0.9712787086E+00
          0                 2           2             4    7     1      -0.4950230472E-03       4    7    1        -0.2659111039E-01      0.9650019131E-01
          0                 3           2             4    7     1      -0.2314821650E-01       5    6    1        -0.1243547582E+01      0.3060123606E+01
          0                 4           2             4    7     1       0.2412892452E-01       5    6    1         0.1332057679E+01      0.3262892027E+01
          0                 5           2             4    7     1      -0.9603498089E-03       5    8    1        -0.5449527102E-01      0.1334855986E+00
          0                 6           1             4    7     1       0.1185030521E-04       5    8    1         0.6911338448E-03      0.1692915084E-02

    ------------------------------------------------
       NWT REQUIRED            6 OUTER ITERATIONS 
       AND A TOTAL OF         11 INNER ITERATIONS.
    ------------------------------------------------

 NO OUTPUT CONTROL FOR STRESS PERIOD   30   TIME STEP   18
 
 SOLVING FOR HEAD 
                                                   Max.-Head-Change                         Max.-Flux-Residual
  Residual-Control   Outer-Iter.   Inner-Iter.     Column Row Layer    Maximum-Head-Change  Column Row Layer    Maximum-Flux-Residual          L2-NORM 
          0                 1           2             4    7     1       0.5060663834E-02       4    7    1         0.2644201047E+00      0.9627543698E+00
          0                 2           2             4    7     1      -0.4922650966E-03       4    7    1        -0.2644204257E-01      0.9567336175E-01
          0                 3           2             4    7     1      -0.2314840243E-01       5    6    1        -0.1243552649E+01      0.3060136422E+01
          0                 4           2             4    7     1       0.2412892970E-01       5    6    1         0.1332057795E+01      0.3262892696E+01
          0                 5           2             4    7     1      -0.9603500152E-03       5    8    1        -0.5449527817E-01      0.1334856318E+00
          0                 6           1             4    7     1       0.1185030812E-04       5    8    1         0.6911339287E-03      0.1692923427E-02

    ------------------------------------------------
       NWT REQUIRED            6 OUTER ITERATIONS 
       AND A TOTAL OF         11 INNER ITERATIONS.
    ------------------------------------------------

 NO OUTPUT CONTROL FOR STRESS PERIOD   30   TIME STEP   19
 
 SOLVING FOR HEAD 
                                                   Max.-Head-Change                         Max.-Flux-Residual
  Residual-Control   Outer-Iter.   Inner-Iter.     Column Row Layer    Maximum-Head-Change  Column Row Layer    Maximum-Flux-Residual          L2-NORM 
          0                 1           2             4    7     1       0.5032701563E-02       4    7    1         0.2629503379E+00      0.9547719280E+00
          0                 2           2             4    7     1      -0.4895456776E-03       4    7    1        -0.2629509521E-01      0.9490031227E-01
          0                 3           2             4    7     1      -0.2314858679E-01       5    6    1        -0.1243557912E+01      0.3060149776E+01
          0                 4           2             4    7     1       0.2412893697E-01       5    6    1         0.1332058044E+01      0.3262893686E+01
          0                 5           2             4    7     1      -0.9603503041E-03       5    8    1        -0.5449529040E-01      0.1334856739E+00
          0                 6           1             4    7     1       0.1185031126E-04       5    8    1         0.6911340929E-03      0.1692919172E-02

    ------------------------------------------------
       NWT REQUIRED            6 OUTER ITERATIONS 
       AND A TOTAL OF         11 INNER ITERATIONS.
    ------------------------------------------------

 NO OUTPUT CONTROL FOR STRESS PERIOD   30   TIME STEP   20
 
 SOLVING FOR HEAD 
                                                   Max.-Head-Change                         Max.-Flux-Residual
  Residual-Control   Outer-Iter.   Inner-Iter.     Column Row Layer    Maximum-Head-Change  Column Row Layer    Maximum-Flux-Residual          L2-NORM 
          0                 1           2             4    7     1       0.5004978956E-02       4    7    1         0.2614931724E+00      0.9472725703E+00
          0                 2           2             4    7     1      -0.4868490184E-03       4    7    1        -0.2614937830E-01      0.9417255018E-01
          0                 3           2             4    7     1      -0.2314877014E-01       5    6    1        -0.1243563164E+01      0.3060163111E+01
          0                 4           2             4    7     1       0.2412888372E-01       5    6    1         0.1332054955E+01      0.3262886457E+01
          0                 5           2             4    7     1      -0.9602893614E-03       5    8    1        -0.5449182834E-01      0.1334771946E+00
          0                 6           1             4    7     1       0.1184955941E-04       5    8    1         0.6910902030E-03      0.1692810093E-02

    ------------------------------------------------
       NWT REQUIRED            6 OUTER ITERATIONS 
       AND A TOTAL OF         11 INNER ITERATIONS.
    ------------------------------------------------

 NO OUTPUT CONTROL FOR STRESS PERIOD   30   TIME STEP   21
 
 SOLVING FOR HEAD 
                                                   Max.-Head-Change                         Max.-Flux-Residual
  Residual-Control   Outer-Iter.   Inner-Iter.     Column Row Layer    Maximum-Head-Change  Column Row Layer    Maximum-Flux-Residual          L2-NORM 
          0                 1           2             4    7     1       0.4977489179E-02       4    7    1         0.2600484332E+00      0.9402096415E+00
          0                 2           2             4    7     1      -0.4841747312E-03       4    7    1        -0.2600488918E-01      0.9348560550E-01
          0                 3           2             4    7     1      -0.2314895000E-01       5    6    1        -0.1243568329E+01      0.3060176746E+01
          0                 4           2             4    7     1       0.2412894902E-01       5    6    1         0.1332058416E+01      0.3262895300E+01
          0                 5           2             4    7     1      -0.9603507842E-03       5    8    1        -0.5449531011E-01      0.1334857375E+00
          0                 6           1             4    7     1       0.1185031708E-04       5    8    1         0.6911343312E-03      0.1692917620E-02

    ------------------------------------------------
       NWT REQUIRED            6 OUTER ITERATIONS 
       AND A TOTAL OF         11 INNER ITERATIONS.
    ------------------------------------------------

 NO OUTPUT CONTROL FOR STRESS PERIOD   30   TIME STEP   22
 
 SOLVING FOR HEAD 
                                                   Max.-Head-Change                         Max.-Flux-Residual
  Residual-Control   Outer-Iter.   Inner-Iter.     Column Row Layer    Maximum-Head-Change  Column Row Layer    Maximum-Flux-Residual          L2-NORM 
          0                 1           2             4    7     1       0.4950362568E-02       4    7    1         0.2586231137E+00      0.9335368691E+00
          0                 2           2             4    7     1      -0.4815360464E-03       4    7    1        -0.2586235689E-01      0.9283672517E-01
          0                 3           2             4    7     1      -0.2314912712E-01       5    6    1        -0.1243573547E+01      0.3060190382E+01
          0                 4           2             4    7     1       0.2412888460E-01       5    6    1         0.1332054728E+01      0.3262886593E+01
          0                 5           2             4    7     1      -0.9602809926E-03       5    8    1        -0.5449134663E-01      0.1334760287E+00
          0                 6           1             4    7     1       0.1184945568E-04       5    8    1         0.6910840752E-03      0.1692802995E-02

    ------------------------------------------------
       NWT REQUIRED            6 OUTER ITERATIONS 
       AND A TOTAL OF         11 INNER ITERATIONS.
    ------------------------------------------------

 NO OUTPUT CONTROL FOR STRESS PERIOD   30   TIME STEP   23
 
 SOLVING FOR HEAD 
                                                   Max.-Head-Change                         Max.-Flux-Residual
  Residual-Control   Outer-Iter.   Inner-Iter.     Column Row Layer    Maximum-Head-Change  Column Row Layer    Maximum-Flux-Residual          L2-NORM 
          0                 1           2             4    7     1       0.4923590057E-02       4    7    1         0.2572166240E+00      0.9272317790E+00
          0                 2           2             4    7     1      -0.4789313962E-03       4    7    1        -0.2572168556E-01      0.9222210178E-01
          0                 3           2             4    7     1      -0.2314930230E-01       5    6    1        -0.1243578796E+01      0.3060204420E+01
          0                 4           2             4    7     1       0.2412888341E-01       5    6    1         0.1332054539E+01      0.3262886466E+01
          0                 5           2             4    7     1      -0.9602753432E-03       5    8    1        -0.5449102308E-01      0.1334752507E+00
          0                 6           1             4    7     1       0.1184938623E-04       5    8    1         0.6910799693E-03      0.1692784531E-02

    ------------------------------------------------
       NWT REQUIRED            6 OUTER ITERATIONS 
       AND A TOTAL OF         11 INNER ITERATIONS.
    ------------------------------------------------

 NO OUTPUT CONTROL FOR STRESS PERIOD   30   TIME STEP   24
 
 SOLVING FOR HEAD 
                                                   Max.-Head-Change                         Max.-Flux-Residual
  Residual-Control   Outer-Iter.   Inner-Iter.     Column Row Layer    Maximum-Head-Change  Column Row Layer    Maximum-Flux-Residual          L2-NORM 
          0                 1           2             4    7     1       0.4897026831E-02       4    7    1         0.2558211461E+00      0.9212523745E+00
          0                 2           2             4    7     1      -0.4763482002E-03       4    7    1        -0.2558217431E-01      0.9163956516E-01
          0                 3           2             4    7     1      -0.2314947711E-01       5    6    1        -0.1243584104E+01      0.3060218480E+01
          0                 4           2             4    7     1       0.2412889014E-01       5    6    1         0.1332054792E+01      0.3262887464E+01
          0                 5           2             4    7     1      -0.9602756113E-03       5    8    1        -0.5449103544E-01      0.1334752999E+00
          0                 6           1             4    7     1       0.1184938959E-04       5    8    1         0.6910801169E-03      0.1692786840E-02

    ------------------------------------------------
       NWT REQUIRED            6 OUTER ITERATIONS 
       AND A TOTAL OF         11 INNER ITERATIONS.
    ------------------------------------------------

 NO OUTPUT CONTROL FOR STRESS PERIOD   30   TIME STEP   25
 
 SOLVING FOR HEAD 
                                                   Max.-Head-Change                         Max.-Flux-Residual
  Residual-Control   Outer-Iter.   Inner-Iter.     Column Row Layer    Maximum-Head-Change  Column Row Layer    Maximum-Flux-Residual          L2-NORM 
          0                 1           2             4    7     1       0.4870802270E-02       4    7    1         0.2544438674E+00      0.9155657713E+00
          0                 2           2             4    7     1      -0.4737965741E-03       4    7    1        -0.2544440924E-01      0.9108455587E-01
          0                 3           2             4    7     1      -0.2314964889E-01       5    6    1        -0.1243589428E+01      0.3060232853E+01
          0                 4           2             4    7     1       0.2412888732E-01       5    6    1         0.1332054529E+01      0.3262887128E+01
          0                 5           2             4    7     1      -0.9602684961E-03       5    8    1        -0.5449062932E-01      0.1334743073E+00
          0                 6           1             4    7     1       0.1184930188E-04       5    8    1         0.6910749723E-03      0.1692774502E-02

    ------------------------------------------------
       NWT REQUIRED            6 OUTER ITERATIONS 
       AND A TOTAL OF         11 INNER ITERATIONS.
    ------------------------------------------------

 NO OUTPUT CONTROL FOR STRESS PERIOD   30   TIME STEP   26
 
 SOLVING FOR HEAD 
                                                   Max.-Head-Change                         Max.-Flux-Residual
  Residual-Control   Outer-Iter.   Inner-Iter.     Column Row Layer    Maximum-Head-Change  Column Row Layer    Maximum-Flux-Residual          L2-NORM 
          0                 1           2             4    7     1       0.4844909578E-02       4    7    1         0.2530841482E+00      0.9101547487E+00
          0                 2           2             4    7     1      -0.4712779167E-03       4    7    1        -0.2530843702E-01      0.9055572670E-01
          0                 3           2             4    7     1      -0.2314981770E-01       5    6    1        -0.1243594651E+01      0.3060247109E+01
          0                 4           2             4    7     1       0.2412888721E-01       5    6    1         0.1332054418E+01      0.3262887162E+01
          0                 5           2             4    7     1      -0.9602642902E-03       5    8    1        -0.5449038831E-01      0.1334737238E+00
          0                 6           1             4    7     1       0.1184925002E-04       5    8    1         0.6910719158E-03      0.1692773495E-02

    ------------------------------------------------
       NWT REQUIRED            6 OUTER ITERATIONS 
       AND A TOTAL OF         11 INNER ITERATIONS.
    ------------------------------------------------

 NO OUTPUT CONTROL FOR STRESS PERIOD   30   TIME STEP   27
 
 SOLVING FOR HEAD 
                                                   Max.-Head-Change                         Max.-Flux-Residual
  Residual-Control   Outer-Iter.   Inner-Iter.     Column Row Layer    Maximum-Head-Change  Column Row Layer    Maximum-Flux-Residual          L2-NORM 
          0                 1           2             4    7     1       0.4819203670E-02       4    7    1         0.2517342879E+00      0.9049913541E+00
          0                 2           2             4    7     1      -0.4687781149E-03       4    7    1        -0.2517348756E-01      0.9005066518E-01
          0                 3           2             4    7     1      -0.2314998453E-01       5    6    1        -0.1243599889E+01      0.3060261142E+01
          0                 4           2             4    7     1       0.2412888842E-01       5    6    1         0.1332054387E+01      0.3262887375E+01
          0                 5           2             4    7     1      -0.9602615374E-03       5    8    1        -0.5449023003E-01      0.1334733479E+00
          0                 6           1             4    7     1       0.1184921608E-04       5    8    1         0.6910699024E-03      0.1692761122E-02

    ------------------------------------------------
       NWT REQUIRED            6 OUTER ITERATIONS 
       AND A TOTAL OF         11 INNER ITERATIONS.
    ------------------------------------------------

 NO OUTPUT CONTROL FOR STRESS PERIOD   30   TIME STEP   28
 
 SOLVING FOR HEAD 
                                                   Max.-Head-Change                         Max.-Flux-Residual
  Residual-Control   Outer-Iter.   Inner-Iter.     Column Row Layer    Maximum-Head-Change  Column Row Layer    Maximum-Flux-Residual          L2-NORM 
          0                 1           2             4    7     1       0.4793817235E-02       4    7    1         0.2504014604E+00      0.9000510609E+00
          0                 2           2             4    7     1      -0.4663084264E-03       4    7    1        -0.2504018968E-01      0.8956745460E-01
          0                 3           2             4    7     1      -0.2315015245E-01       5    6    1        -0.1243605290E+01      0.3060275850E+01
          0                 4           2             4    7     1       0.2412889333E-01       5    6    1         0.1332054566E+01      0.3262888095E+01
          0                 5           2             4    7     1      -0.9602603321E-03       5    8    1        -0.5449015997E-01      0.1334731784E+00
          0                 6           1             4    7     1       0.1184920107E-04       5    8    1         0.6910690297E-03      0.1692758468E-02

    ------------------------------------------------
       NWT REQUIRED            6 OUTER ITERATIONS 
       AND A TOTAL OF         11 INNER ITERATIONS.
    ------------------------------------------------

 NO OUTPUT CONTROL FOR STRESS PERIOD   30   TIME STEP   29
 
 SOLVING FOR HEAD 
                                                   Max.-Head-Change                         Max.-Flux-Residual
  Residual-Control   Outer-Iter.   Inner-Iter.     Column Row Layer    Maximum-Head-Change  Column Row Layer    Maximum-Flux-Residual          L2-NORM 
          0                 1           2             4    7     1       0.4768604676E-02       4    7    1         0.2490778488E+00      0.8953212412E+00
          0                 2           2             4    7     1      -0.4638559276E-03       4    7    1        -0.2490782823E-01      0.8910377916E-01
          0                 3           2             4    7     1      -0.2315031670E-01       5    6    1        -0.1243610601E+01      0.3060290375E+01
          0                 4           2             4    7     1       0.2412889009E-01       5    6    1         0.1332054302E+01      0.3262887733E+01
          0                 5           2             4    7     1      -0.9602532003E-03       5    8    1        -0.5448975349E-01      0.1334721862E+00
          0                 6           1             4    7     1       0.1184911302E-04       5    8    1         0.6910638606E-03      0.1692744634E-02

    ------------------------------------------------
       NWT REQUIRED            6 OUTER ITERATIONS 
       AND A TOTAL OF         11 INNER ITERATIONS.
    ------------------------------------------------

 NO OUTPUT CONTROL FOR STRESS PERIOD   30   TIME STEP   30



 STREAM LISTING     PERIOD     30   STEP       30

 LAYER ROW COL. STREAM  RCH.  FLOW INTO     FLOW TO   FLOW OUT OF   OVRLND.     DIRECT     STREAM       STREAM     STREAM     STREAM   STREAMBED  STREAMBED
                SEG.NO.  NO.  STRM. RCH.    AQUIFER    STRM. RCH.    RUNOFF     PRECIP       ET          HEAD       DEPTH      WIDTH   CONDCTNC.   GRADIENT

   1    1    1     1     1    3.7124E+01  2.9395E-01   3.6830E+01  0.000E+00  0.000E+00  0.000E+00  1.09436E+03  1.309E+00  1.516E+01  6.821E-02  1.436E+00
   1    2    2     1     2    3.6830E+01  4.5517E-01   3.6375E+01  0.000E+00  0.000E+00  0.000E+00  1.08936E+03  1.306E+00  1.510E+01  1.057E-01  1.435E+00
   1    3    3     1     3    3.6375E+01  3.8813E-01   3.5987E+01  0.000E+00  0.000E+00  0.000E+00  1.08372E+03  1.303E+00  1.503E+01  9.020E-02  1.434E+00
   1    3    4     1     4    3.5987E+01  3.5736E-01   3.5629E+01  0.000E+00  0.000E+00  0.000E+00  1.07871E+03  1.300E+00  1.497E+01  8.311E-02  1.433E+00
   1    4    5     2     1    3.3629E+01  3.4618E-01   3.3283E+01  0.000E+00  0.000E+00  0.000E+00  1.07337E+03  1.438E+00  1.200E+01  7.800E-02  1.479E+00
   1    5    6     2     2    3.3283E+01  2.6582E-01   3.3017E+01  0.000E+00  0.000E+00  0.000E+00  1.06794E+03  1.430E+00  1.200E+01  6.000E-02  1.477E+00
   1    6    6     2     3    3.3017E+01  2.6541E-01   3.2752E+01  0.000E+00  0.000E+00  0.000E+00  1.06322E+03  1.423E+00  1.200E+01  6.000E-02  1.474E+00
   1    7    6     2     4    3.2752E+01  2.6499E-01   3.2487E+01  0.000E+00  0.000E+00  0.000E+00  1.05849E+03  1.417E+00  1.200E+01  6.000E-02  1.472E+00
   1    8    6     2     5    3.2487E+01  2.6458E-01   3.2222E+01  0.000E+00  0.000E+00  0.000E+00  1.05377E+03  1.410E+00  1.200E+01  6.000E-02  1.470E+00
   1    3    5     3     1    2.0000E+00  2.8252E-01   1.7175E+00  0.000E+00  0.000E+00  0.000E+00  1.07555E+03  1.909E+00  9.636E+00  7.227E-02  1.955E+00
   1    3    6     3     2    1.7175E+00  2.4905E-01   1.4684E+00  0.000E+00  0.000E+00  0.000E+00  1.07264E+03  1.727E+00  8.909E+00  6.682E-02  1.864E+00
   1    3    7     3     3    1.4684E+00  1.9718E-01   1.2712E+00  0.000E+00  0.000E+00  0.000E+00  1.06987E+03  1.555E+00  8.218E+00  5.547E-02  1.777E+00
   1    4    8     3     4    1.2712E+00  2.2567E-01   1.0456E+00  0.000E+00  0.000E+00  0.000E+00  1.06682E+03  1.364E+00  7.455E+00  6.709E-02  1.682E+00
   1    5    8     3     5    1.0456E+00  1.5790E-01   8.8768E-01  0.000E+00  0.000E+00  0.000E+00  1.06362E+03  1.164E+00  6.655E+00  4.991E-02  1.582E+00
   1    6    8     3     6    8.8768E-01  5.5980E-02   8.3170E-01  0.000E+00  0.000E+00  0.000E+00  1.06158E+03  1.036E+00  6.145E+00  1.844E-02  1.518E+00
   1    5   10     4     1    1.0000E+01  9.0919E-02   9.9091E+00  0.000E+00  0.000E+00  0.000E+00  1.07836E+03  6.368E-01  1.000E+01  2.500E-02  1.212E+00
   1    5    9     4     2    9.9091E+00  1.8158E-01   9.7275E+00  0.000E+00  0.000E+00  0.000E+00  1.07154E+03  6.315E-01  1.000E+01  5.000E-02  1.211E+00
   1    6    8     4     3    9.7275E+00  1.2689E-01   9.6006E+00  0.000E+00  0.000E+00  0.000E+00  1.06381E+03  6.256E-01  1.000E+01  3.500E-02  1.209E+00
   1    6    8     5     1    1.0432E+01  2.2686E-01   1.0205E+01  0.000E+00  0.000E+00  0.000E+00  1.05868E+03  6.790E-01  1.542E+01  6.166E-02  1.226E+00
   1    7    7     5     2    1.0205E+01  2.7894E-01   9.9265E+00  0.000E+00  0.000E+00  0.000E+00  1.05417E+03  6.732E-01  1.519E+01  7.594E-02  1.224E+00
   1    8    7     5     3    9.9265E+00  1.9221E-01   9.7343E+00  0.000E+00  0.000E+00  0.000E+00  1.04992E+03  6.676E-01  1.497E+01  5.241E-02  1.223E+00
   1    8    6     5     4    9.7343E+00  1.3577E-01   9.5985E+00  0.000E+00  0.000E+00  0.000E+00  1.04691E+03  6.637E-01  1.482E+01  3.706E-02  1.221E+00
   1    9    6     6     1    3.4351E+01  2.6844E-01   3.4082E+01  0.000E+00  0.000E+00  0.000E+00  1.04420E+03  1.474E+00  1.200E+01  6.000E-02  1.491E+00
   1   10    7     6     2    3.4082E+01  2.6803E-01   3.3814E+01  0.000E+00  0.000E+00  0.000E+00  1.03965E+03  1.467E+00  1.200E+01  6.000E-02  1.489E+00
   1   11    7     6     3    3.3814E+01  2.6761E-01   3.3547E+01  0.000E+00  0.000E+00  0.000E+00  1.03510E+03  1.460E+00  1.200E+01  6.000E-02  1.487E+00
   1   12    7     6     4    3.3547E+01  2.6719E-01   3.3280E+01  0.000E+00  0.000E+00  0.000E+00  1.03054E+03  1.453E+00  1.200E+01  6.000E-02  1.484E+00
   1   13    7     6     5    3.3280E+01  1.5755E-02   3.3264E+01  0.000E+00  0.000E+00  0.000E+00  1.02736E+03  1.449E+00  1.200E+01  2.400E-02  2.188E-01
   1   14    9     7     1    1.5000E+02  1.3789E+00   1.4862E+02  0.000E+00  0.000E+00  0.000E+00  1.03987E+03  2.288E+00  5.529E+01  5.593E-01  8.218E-01
   1   13    8     7     2    1.4862E+02  1.9597E+00   1.4666E+02  0.000E+00  0.000E+00  0.000E+00  1.03478E+03  2.279E+00  5.525E+01  6.147E-01  1.063E+00
   1   13    7     7     3    1.4666E+02  1.6675E+00   1.4499E+02  0.000E+00  0.000E+00  0.000E+00  1.02969E+03  2.269E+00  5.521E+01  5.584E-01  9.954E-01
   1   13    6     8     1    1.7826E+02  1.1450E+00   1.7711E+02  0.000E+00  0.000E+00  0.000E+00  1.02488E+03  3.002E+00  4.352E+01  4.435E-01  8.606E-01
   1   13    5     8     2    1.7711E+02  3.6252E-01   1.7675E+02  0.000E+00  0.000E+00  0.000E+00  1.01862E+03  2.997E+00  4.345E+01  4.428E-01  2.729E-01
   1   13    4     8     3    1.7675E+02 -1.8478E+00   1.7860E+02  0.000E+00  0.000E+00  0.000E+00  1.01238E+03  3.001E+00  4.352E+01  4.435E+00 -1.389E-01
   1   13    3     8     4    1.7860E+02 -3.3421E+00   1.8194E+02  0.000E+00  0.000E+00  0.000E+00  1.00614E+03  3.018E+00  4.376E+01  4.459E+00 -2.498E-01
   1   13    2     8     5    1.8194E+02 -2.4604E+00   1.8440E+02  0.000E+00  0.000E+00  0.000E+00  9.99911E+02  3.036E+00  4.402E+01  4.486E+00 -1.828E-01
   1   13    1     8     6    1.8440E+02 -1.9165E+00   1.8632E+02  0.000E+00  0.000E+00  0.000E+00  9.94924E+02  3.050E+00  4.422E+01  2.704E+00 -2.363E-01
   1    8    6     9     1    7.4700E+00  0.0000E+00   7.4700E+00  0.000E+00  0.000E+00  0.000E+00  1.08065E+03  1.902E+00  4.000E+00  0.000E+00  1.634E+00
   1    8    5     9     2    7.4700E+00  0.0000E+00   7.4700E+00  0.000E+00  0.000E+00  0.000E+00  1.08015E+03  1.902E+00  4.000E+00  0.000E+00  1.634E+00





UNSATURATED ZONE PACKAGE VOLUMETRIC BUDGET FOR  TIME STEP    30 STRESS PERIOD   30
  ------------------------------------------------------------------------------



     CUMULATIVE VOLUMES      L**3       RATES FOR THIS TIME STEP      L**3/T
     ------------------                 ------------------------

           IN:                                      IN:
           ---                                      ---
        INFILTRATION =   895108517.4307          INFILTRATION =           8.3177

          OUT:                                     OUT:
          ----                                     ----
              UZF ET =   891295981.8260                UZF ET =           8.3175
        UZF RECHARGE =       73224.0000          UZF RECHARGE =       0.0000E+00

            IN - OUT =     3739311.6048              IN - OUT =       1.5020E-04

          STORAGE:                                 STORAGE:
          --------                                 --------
      STORAGE CHANGE =     3739308.6172        STORAGE CHANGE =       1.5029E-04

 PERCENT DISCREPANCY IS DIFFERENCE BETWEEN IN-OUT MINUS CHANGE IN STORAGE
 DIVIDED BY THE AVERAGE OF IN AND OUT TIMES 100

 PERCENT DISCREPANCY =           0.00     PERCENT DISCREPANCY =           0.00






1
  VOLUMETRIC BUDGET FOR AGRICULTURAL FIELDS AT  END OF TIME STEP   30, STRESS PERIOD  30
  ------------------------------------------------------------------------------

     CUMULATIVE VOLUMES      L**3       RATES FOR THIS TIME STEP      L**3/T
     ------------------                 ------------------------

           IN:                                      IN:
           ---                                      ---
           AG WELLS      =   428269280.0000             AG WELLS      =           0.0000
      DIVERSION SEGMENTS =   402160640.0000        DIVERSION SEGMENTS =           7.4700
           GW IRRIGATION =           0.0000             GW IRRIGATION =           0.0000
           SW IRRIGATION =           0.0000             SW IRRIGATION =           0.0000
        SYSTEM LOSSES GW =           0.0000          SYSTEM LOSSES GW =           0.0000
        SYSTEM LOSSES SW =           0.0000          SYSTEM LOSSES SW =           0.0000

                TOTAL IN =   830429952.0000                  TOTAL IN =           7.4700

          OUT:                                     OUT:
          ----                                     ----
           AG WELLS      =           0.0000             AG WELLS      =           0.0000
      DIVERSION SEGMENTS =           0.0000        DIVERSION SEGMENTS =           0.0000
           GW IRRIGATION =   428269280.0000             GW IRRIGATION =           0.0000
           SW IRRIGATION =   402168128.0000             SW IRRIGATION =           7.4701
        SYSTEM LOSSES GW =           0.0000          SYSTEM LOSSES GW =           0.0000
        SYSTEM LOSSES SW =           0.0000          SYSTEM LOSSES SW =           0.0000

               TOTAL OUT =   830437376.0000                 TOTAL OUT =           7.4701

                IN - OUT =       -7424.0000                  IN - OUT =      -1.4925E-04

     PERCENT DISCREPANCY =          -0.00         PERCENT DISCREPANCY =          -0.00



1
  VOLUMETRIC BUDGET FOR ENTIRE MODEL AT END OF TIME STEP   30, STRESS PERIOD  30
  ------------------------------------------------------------------------------

     CUMULATIVE VOLUMES      L**3       RATES FOR THIS TIME STEP      L**3/T
     ------------------                 ------------------------

           IN:                                      IN:
           ---                                      ---
             STORAGE     =   646240896.0000               STORAGE     =           1.2136
       CONSTANT HEAD     =           0.0000         CONSTANT HEAD     =           0.0000
     HEAD DEP BOUNDS     =    22002876.0000       HEAD DEP BOUNDS     =           0.2887
      STREAM LEAKAGE     =   897630848.0000        STREAM LEAKAGE     =          12.9037
        UZF RECHARGE     =       73223.9531          UZF RECHARGE     =           0.0000
               GW ET     =           0.0000                 GW ET     =           0.0000
     SURFACE LEAKAGE     =           0.0000       SURFACE LEAKAGE     =           0.0000
           AG WELLS      =           0.0000             AG WELLS      =           0.0000

                TOTAL IN =  1565947904.0000                  TOTAL IN =          14.4060

          OUT:                                     OUT:
          ----                                     ----
             STORAGE     =   340318272.0000               STORAGE     =           4.5491
       CONSTANT HEAD     =           0.0000         CONSTANT HEAD     =           0.0000
     HEAD DEP BOUNDS     =    21986564.0000       HEAD DEP BOUNDS     =           0.2901
      STREAM LEAKAGE     =   775385344.0000        STREAM LEAKAGE     =           9.5668
        UZF RECHARGE     =           0.0000          UZF RECHARGE     =           0.0000
               GW ET     =           0.0000                 GW ET     =           0.0000
     SURFACE LEAKAGE     =           0.0000       SURFACE LEAKAGE     =           0.0000
           AG WELLS      =   428269280.0000             AG WELLS      =           0.0000

               TOTAL OUT =  1565959424.0000                 TOTAL OUT =          14.4059

                IN - OUT =      -11520.0000                  IN - OUT =       6.4850E-05

     PERCENT DISCREPANCY =          -0.00         PERCENT DISCREPANCY =           0.00






         TIME SUMMARY AT END OF TIME STEP   30 IN STRESS PERIOD   30
                    SECONDS     MINUTES      HOURS       DAYS        YEARS
                    -----------------------------------------------------------
   TIME STEP LENGTH  87667.      1461.1      24.352      1.0147     2.77799E-03
 STRESS PERIOD TIME 2.63000E+06  43833.      730.56      30.440     8.33397E-02
         TOTAL TIME 7.63565E+07 1.27261E+06  21210.      883.76      2.4196    
1
1
                            STRESS PERIOD NO.   31, LENGTH =   2630000.    
                            -----------------------------------------------

                              NUMBER OF TIME STEPS =    30

                               MULTIPLIER FOR DELT =     1.000

                            INITIAL TIME STEP SIZE =   87666.66    

 REUSING NON-PARAMETER GHB CELLS FROM LAST STRESS PERIOD

      2 GHB CELLS

 REUSING STREAM SEGMENT DATA FROM LAST STRESS PERIOD



            AREAL INFILTRATION RATE
 READING ON UNIT   19 WITH FORMAT: (FREE)              

            1           2           3           4           5           6           7           8           9          10
 ........................................................................................................................
   1   1.0000E-10  2.0000E-10   0.000       0.000       0.000       0.000       0.000       0.000       0.000       0.000    
   2   2.0000E-10  1.0000E-10  2.0000E-10   0.000       0.000      8.0000E-10  8.0000E-10  5.0000E-10   0.000       0.000    
   3    0.000      5.0000E-10  1.0000E-10  1.0000E-10  8.0000E-10  8.0000E-10  5.0000E-10  5.0000E-10   0.000       0.000    
   4   8.0000E-10  5.0000E-10  1.0000E-10  1.0000E-10  1.0000E-10  1.0000E-10  1.0000E-10  1.0000E-10  2.0000E-10   0.000    
   5   8.0000E-10  5.0000E-10  1.0000E-10  1.0000E-10  1.0000E-10  1.0000E-10  1.0000E-10  1.0000E-10  1.0000E-10  1.0000E-10
   6   8.0000E-10  5.0000E-10  5.0000E-10  2.0000E-10  2.0000E-10  1.0000E-10  1.0000E-10  1.0000E-10  1.0000E-10  5.0000E-10
   7   8.0000E-10  5.0000E-10  5.0000E-10  2.0000E-10  2.0000E-10  1.0000E-10  1.0000E-10  2.0000E-10  2.0000E-10   0.000    
   8    0.000      5.0000E-10  5.0000E-10  2.0000E-10  2.0000E-10  1.0000E-10  1.0000E-10  2.0000E-10  5.0000E-10   0.000    
   9    0.000      5.0000E-10  5.0000E-10  2.0000E-10  2.0000E-10  1.0000E-10  1.0000E-10  2.0000E-10  5.0000E-10   0.000    
  10    0.000      5.0000E-10  5.0000E-10  2.0000E-10  2.0000E-10  1.0000E-10  1.0000E-10  2.0000E-10  5.0000E-10  8.0000E-10
  11    0.000      1.0000E-10  1.0000E-10  1.0000E-10  1.0000E-10  1.0000E-10  1.0000E-10  2.0000E-10  5.0000E-10   0.000    
  12   1.0000E-10  1.0000E-10  1.0000E-10  1.0000E-10  1.0000E-10  1.0000E-10  1.0000E-10  1.0000E-10  2.0000E-10   0.000    
  13   1.0000E-10  1.0000E-10  2.0000E-10  2.0000E-10  2.0000E-10  2.0000E-10  2.0000E-10  1.0000E-10  1.0000E-10   0.000    
  14    0.000      2.0000E-10  5.0000E-10  5.0000E-10  5.0000E-10  5.0000E-10  5.0000E-10  2.0000E-10  1.0000E-10   0.000    
  15    0.000       0.000      8.0000E-10  8.0000E-10  8.0000E-10  8.0000E-10   0.000       0.000       0.000       0.000    

                  ET RATE =  1.500000E-07

 USING ET EXTINCTION DEPTH FROM PREVIOUS STRESS PERIOD. CURRENT PERIOD IS:      31

 USING EXTINCTION WATER CONTENT FROM PREVIOUS STRESS PERIOD. CURRENT PERIOD IS:      31

 USING AIR ENTRY PRESSURE FROM PREVIOUS STRESS PERIOD. CURRENT PERIOD IS:      31

 USING ROOT PRESSURE HEAD FROM PREVIOUS STRESS PERIOD. CURRENT PERIOD IS:      31

 USING ROOT ACTIVITY FROM PREVIOUS STRESS PERIOD. CURRENT PERIOD IS:      31

 PROCESSING AG STRESS PERIOD DATA

 READING AG STRESS PERIOD DATA

 READING IRRIGATION SEGMENT

 READING IRRIGATION WELL

 READING SUPPLEMENTAL WELL

 END PROCESSING AG STRESS PERIOD DATA OPTIONS
 
 SOLVING FOR HEAD 
                                                   Max.-Head-Change                         Max.-Flux-Residual
  Residual-Control   Outer-Iter.   Inner-Iter.     Column Row Layer    Maximum-Head-Change  Column Row Layer    Maximum-Flux-Residual          L2-NORM 
          0                 1           2             4   13     1      -0.6846699117E-02       4   13    1        -0.3923425730E+00      0.1023720463E+01
          0                 2           2             4    7     1      -0.4700018579E-01       4    7    1        -0.2524090436E+01      0.6178943294E+01
          0                 3           2             4    7     1       0.2366635011E-01       4    7    1         0.1306505348E+01      0.3199971730E+01
          0                 4           2             4    7     1      -0.9417154959E-03       4    7    1        -0.5343671126E-01      0.1309148970E+00
          0                 5           1             4    7     1       0.1161174509E-04       4    7    1         0.6772069278E-03      0.1673029100E-02

    ------------------------------------------------
       NWT REQUIRED            5 OUTER ITERATIONS 
       AND A TOTAL OF          9 INNER ITERATIONS.
    ------------------------------------------------

 NO OUTPUT CONTROL FOR STRESS PERIOD   31   TIME STEP    1
 
 SOLVING FOR HEAD 
                                                   Max.-Head-Change                         Max.-Flux-Residual
  Residual-Control   Outer-Iter.   Inner-Iter.     Column Row Layer    Maximum-Head-Change  Column Row Layer    Maximum-Flux-Residual          L2-NORM 
          0                 1           2             4    7     1       0.4871394404E-02       4    7    1         0.2538278878E+00      0.8412694259E+00
          0                 2           2             7   13     1      -0.2972678546E-02       7   13    1        -0.1649757886E+00      0.1840013395E+00
          0                 3           2             4    7     1      -0.2305529008E-01       5    6    1        -0.1238286755E+01      0.3047397675E+01
          0                 4           2             4    7     1       0.2342841314E-01       5    6    1         0.1293368630E+01      0.3168103876E+01
          0                 5           2             4    7     1      -0.9535121492E-03       4    8    1        -0.5410674711E-01      0.1328138041E+00
          0                 6           1             4   13     1      -0.8302311879E-04       4   13    1        -0.5169235052E-02      0.1018128641E-01

    ------------------------------------------------
       NWT REQUIRED            6 OUTER ITERATIONS 
       AND A TOTAL OF         11 INNER ITERATIONS.
    ------------------------------------------------

 NO OUTPUT CONTROL FOR STRESS PERIOD   31   TIME STEP    2
 
 SOLVING FOR HEAD 
                                                   Max.-Head-Change                         Max.-Flux-Residual
  Residual-Control   Outer-Iter.   Inner-Iter.     Column Row Layer    Maximum-Head-Change  Column Row Layer    Maximum-Flux-Residual          L2-NORM 
          0                 1           2             4    7     1       0.4860988699E-02       4    7    1         0.2533121465E+00      0.8270423058E+00
          0                 2           2             4    7     1      -0.4516427298E-01       4    7    1        -0.2425434800E+01      0.5967743396E+01
          0                 3           2             4    7     1       0.2274295147E-01       4    7    1         0.1255524259E+01      0.3086815815E+01
          0                 4           2             4    7     1       0.2287860101E-01       5    6    1         0.1263012473E+01      0.3093781961E+01
          0                 5           2             4    7     1      -0.9105921708E-03       4    8    1        -0.5167120997E-01      0.1265682753E+00
          0                 6           1             4    7     1       0.1123657603E-04       4    8    1         0.6553323276E-03      0.1605416415E-02

    ------------------------------------------------
       NWT REQUIRED            6 OUTER ITERATIONS 
       AND A TOTAL OF         11 INNER ITERATIONS.
    ------------------------------------------------

 NO OUTPUT CONTROL FOR STRESS PERIOD   31   TIME STEP    3
 
 SOLVING FOR HEAD 
                                                   Max.-Head-Change                         Max.-Flux-Residual
  Residual-Control   Outer-Iter.   Inner-Iter.     Column Row Layer    Maximum-Head-Change  Column Row Layer    Maximum-Flux-Residual          L2-NORM 
          0                 1           2             4    7     1       0.4846055549E-02       4    7    1         0.2525753229E+00      0.8404384326E+00
          0                 2           2             4    7     1      -0.4713897013E-03       4    7    1        -0.2525756980E-01      0.8381632994E-01
          0                 3           2             4    7     1      -0.6969967418E-01       5    6    1        -0.3743273059E+01      0.9211575560E+01
          0                 4           2             4    7     1       0.7258376931E-01       5    6    1         0.4006946211E+01      0.9815062132E+01
          0                 5           2             4    7     1      -0.2890226931E-02       4    6    1        -0.1661617019E+00      0.4025638367E+00
          0                 6           1             4    7     1       0.3642717906E-04       4    6    1         0.2152217402E-02      0.5214981179E-02

    ------------------------------------------------
       NWT REQUIRED            6 OUTER ITERATIONS 
       AND A TOTAL OF         11 INNER ITERATIONS.
    ------------------------------------------------

 NO OUTPUT CONTROL FOR STRESS PERIOD   31   TIME STEP    4
 
 SOLVING FOR HEAD 
                                                   Max.-Head-Change                         Max.-Flux-Residual
  Residual-Control   Outer-Iter.   Inner-Iter.     Column Row Layer    Maximum-Head-Change  Column Row Layer    Maximum-Flux-Residual          L2-NORM 
          0                 1           2             4    7     1       0.4830321555E-02       4    7    1         0.2517938621E+00      0.8538165892E+00
          0                 2           2             4    7     1      -0.4698592172E-03       4    7    1        -0.2517942405E-01      0.8506682860E-01
          0                 3           2             4    7     1      -0.6969977349E-01       5    6    1        -0.3743292325E+01      0.9211736453E+01
          0                 4           2             4    7     1       0.7258377699E-01       5    6    1         0.4006947560E+01      0.9815079559E+01
          0                 5           2             4    7     1      -0.2890235526E-02       4    6    1        -0.1661984386E+00      0.4025796266E+00
          0                 6           1             4    7     1       0.3642728502E-04       4    6    1         0.2152693241E-02      0.5216540169E-02

    ------------------------------------------------
       NWT REQUIRED            6 OUTER ITERATIONS 
       AND A TOTAL OF         11 INNER ITERATIONS.
    ------------------------------------------------

 NO OUTPUT CONTROL FOR STRESS PERIOD   31   TIME STEP    5
 
 SOLVING FOR HEAD 
                                                   Max.-Head-Change                         Max.-Flux-Residual
  Residual-Control   Outer-Iter.   Inner-Iter.     Column Row Layer    Maximum-Head-Change  Column Row Layer    Maximum-Flux-Residual          L2-NORM 
          0                 1           2             4    7     1       0.4813972543E-02       4    7    1         0.2509780708E+00      0.8683003913E+00
          0                 2           2             4    7     1      -0.4682689086E-03       4    7    1        -0.2509784523E-01      0.8642438301E-01
          0                 3           2             4    7     1      -0.6969987694E-01       5    6    1        -0.3743310706E+01      0.9211886788E+01
          0                 4           2             4    7     1       0.7258378468E-01       5    6    1         0.4006948847E+01      0.9815096250E+01
          0                 5           2             4    7     1      -0.2890243915E-02       4    6    1        -0.1662342615E+00      0.4025943968E+00
          0                 6           1             4    7     1       0.3642738842E-04       4    6    1         0.2153157234E-02      0.5215411492E-02

    ------------------------------------------------
       NWT REQUIRED            6 OUTER ITERATIONS 
       AND A TOTAL OF         11 INNER ITERATIONS.
    ------------------------------------------------

 NO OUTPUT CONTROL FOR STRESS PERIOD   31   TIME STEP    6
 
 SOLVING FOR HEAD 
                                                   Max.-Head-Change                         Max.-Flux-Residual
  Residual-Control   Outer-Iter.   Inner-Iter.     Column Row Layer    Maximum-Head-Change  Column Row Layer    Maximum-Flux-Residual          L2-NORM 
          0                 1           2             4    7     1       0.4796922074E-02       4   13    1         0.2540942079E+00      0.8833355250E+00
          0                 2           2             4    7     1      -0.4666103663E-03       4   13    1        -0.2516309763E-01      0.8783636902E-01
          0                 3           2             4    7     1      -0.6969998508E-01       5    6    1        -0.3743328210E+01      0.9212027534E+01
          0                 4           2             4    7     1       0.7258379241E-01       5    6    1         0.4006950072E+01      0.9815112503E+01
          0                 5           2             4    7     1      -0.2890252105E-02       4    6    1        -0.1662691928E+00      0.4026091072E+00
          0                 6           1             4    7     1       0.3642748934E-04       4    6    1         0.2153609689E-02      0.5215614993E-02

    ------------------------------------------------
       NWT REQUIRED            6 OUTER ITERATIONS 
       AND A TOTAL OF         11 INNER ITERATIONS.
    ------------------------------------------------

 NO OUTPUT CONTROL FOR STRESS PERIOD   31   TIME STEP    7
 
 SOLVING FOR HEAD 
                                                   Max.-Head-Change                         Max.-Flux-Residual
  Residual-Control   Outer-Iter.   Inner-Iter.     Column Row Layer    Maximum-Head-Change  Column Row Layer    Maximum-Flux-Residual          L2-NORM 
          0                 1           2             4   13     1       0.4859128152E-02       4   13    1         0.2794740900E+00      0.8984964252E+00
          0                 2           2             4   13     1      -0.4680194744E-03       4   13    1        -0.2767721004E-01      0.8926232088E-01
          0                 3           2             4    7     1      -0.6970009579E-01       5    6    1        -0.3743344953E+01      0.9212159244E+01
          0                 4           2             4    7     1       0.7258380008E-01       5    6    1         0.4006951244E+01      0.9815128334E+01
          0                 5           2             4    7     1      -0.2890260100E-02       4    6    1        -0.1663032730E+00      0.4026234609E+00
          0                 6           1             4    7     1       0.3642758803E-04       4    6    1         0.2154051103E-02      0.5215818018E-02

    ------------------------------------------------
       NWT REQUIRED            6 OUTER ITERATIONS 
       AND A TOTAL OF         11 INNER ITERATIONS.
    ------------------------------------------------

 NO OUTPUT CONTROL FOR STRESS PERIOD   31   TIME STEP    8
 
 SOLVING FOR HEAD 
                                                   Max.-Head-Change                         Max.-Flux-Residual
  Residual-Control   Outer-Iter.   Inner-Iter.     Column Row Layer    Maximum-Head-Change  Column Row Layer    Maximum-Flux-Residual          L2-NORM 
          0                 1           2             4   13     1       0.5257668670E-02       4   13    1         0.3024392800E+00      0.9134935105E+00
          0                 2           2             4   13     1      -0.5063958610E-03       4   13    1        -0.2995099856E-01      0.9067333679E-01
          0                 3           2             4    7     1      -0.6970021058E-01       5    6    1        -0.3743360991E+01      0.9212282950E+01
          0                 4           2             4    7     1       0.7258380779E-01       5    6    1         0.4006952367E+01      0.9815143761E+01
          0                 5           2             4    7     1      -0.2890267911E-02       4    6    1        -0.1663365258E+00      0.4026374636E+00
          0                 6           1             4    7     1       0.3642768436E-04       4    6    1         0.2154481817E-02      0.5216076958E-02

    ------------------------------------------------
       NWT REQUIRED            6 OUTER ITERATIONS 
       AND A TOTAL OF         11 INNER ITERATIONS.
    ------------------------------------------------

 NO OUTPUT CONTROL FOR STRESS PERIOD   31   TIME STEP    9
 
 SOLVING FOR HEAD 
                                                   Max.-Head-Change                         Max.-Flux-Residual
  Residual-Control   Outer-Iter.   Inner-Iter.     Column Row Layer    Maximum-Head-Change  Column Row Layer    Maximum-Flux-Residual          L2-NORM 
          0                 1           2             4   13     1       0.5618526103E-02       4   13    1         0.3232255774E+00      0.9280913350E+00
          0                 2           2             4   13     1      -0.5411643413E-03       4   13    1        -0.3201026542E-01      0.9204884554E-01
          0                 3           2             4    7     1      -0.6970032826E-01       5    6    1        -0.3743376312E+01      0.9212398675E+01
          0                 4           2             4    7     1       0.7258325936E-01       5    6    1         0.4006953440E+01      0.9815147290E+01
          0                 5           2             4    7     1      -0.2889712371E-02       4    8    1        -0.1639821529E+00      0.4016597299E+00
          0                 6           1             4    7     1       0.3642082574E-04       4    8    1         0.2124183161E-02      0.5203007639E-02

    ------------------------------------------------
       NWT REQUIRED            6 OUTER ITERATIONS 
       AND A TOTAL OF         11 INNER ITERATIONS.
    ------------------------------------------------

 NO OUTPUT CONTROL FOR STRESS PERIOD   31   TIME STEP   10
 
 SOLVING FOR HEAD 
                                                   Max.-Head-Change                         Max.-Flux-Residual
  Residual-Control   Outer-Iter.   Inner-Iter.     Column Row Layer    Maximum-Head-Change  Column Row Layer    Maximum-Flux-Residual          L2-NORM 
          0                 1           2             4   13     1       0.5945346320E-02       4   13    1         0.3420441023E+00      0.9421550438E+00
          0                 2           2             4   13     1      -0.5726337380E-03       4   13    1        -0.3387341875E-01      0.9337420843E-01
          0                 3           2             4    7     1      -0.6970044859E-01       5    6    1        -0.3743391023E+01      0.9212507568E+01
          0                 4           2             4    7     1       0.7258325966E-01       5    6    1         0.4006954470E+01      0.9815149692E+01
          0                 5           2             4    7     1      -0.2889712383E-02       4    8    1        -0.1639821843E+00      0.4016599085E+00
          0                 6           1             4    7     1       0.3642082608E-04       4    8    1         0.2124183575E-02      0.5203004593E-02

    ------------------------------------------------
       NWT REQUIRED            6 OUTER ITERATIONS 
       AND A TOTAL OF         11 INNER ITERATIONS.
    ------------------------------------------------

 NO OUTPUT CONTROL FOR STRESS PERIOD   31   TIME STEP   11
 
 SOLVING FOR HEAD 
                                                   Max.-Head-Change                         Max.-Flux-Residual
  Residual-Control   Outer-Iter.   Inner-Iter.     Column Row Layer    Maximum-Head-Change  Column Row Layer    Maximum-Flux-Residual          L2-NORM 
          0                 1           2             4   13     1       0.6241516102E-02       4   13    1         0.3590912585E+00      0.9555843882E+00
          0                 2           2             4   13     1      -0.6011567959E-03       4   13    1        -0.3556148860E-01      0.9464026232E-01
          0                 3           2             4    7     1      -0.6970057218E-01       5    6    1        -0.3743405167E+01      0.9212609913E+01
          0                 4           2             4    7     1       0.7258326014E-01       5    6    1         0.4006955460E+01      0.9815151860E+01
          0                 5           2             4    7     1      -0.2889712402E-02       4    8    1        -0.1639822151E+00      0.4016599299E+00
          0                 6           1             4    7     1       0.3642082630E-04       4    8    1         0.2124183953E-02      0.5203008158E-02

    ------------------------------------------------
       NWT REQUIRED            6 OUTER ITERATIONS 
       AND A TOTAL OF         11 INNER ITERATIONS.
    ------------------------------------------------

 NO OUTPUT CONTROL FOR STRESS PERIOD   31   TIME STEP   12
 
 SOLVING FOR HEAD 
                                                   Max.-Head-Change                         Max.-Flux-Residual
  Residual-Control   Outer-Iter.   Inner-Iter.     Column Row Layer    Maximum-Head-Change  Column Row Layer    Maximum-Flux-Residual          L2-NORM 
          0                 1           2             4   13     1       0.6509956659E-02       4   13    1         0.3745364042E+00      0.9683186426E+00
          0                 2           2             4   13     1      -0.6269952911E-03       4   13    1        -0.3709009780E-01      0.9584149999E-01
          0                 3           2             4    7     1      -0.6970069786E-01       5    6    1        -0.3743418724E+01      0.9212705905E+01
          0                 4           2             4    7     1       0.7258326075E-01       5    6    1         0.4006956409E+01      0.9815154299E+01
          0                 5           2             4    7     1      -0.2889712427E-02       4    8    1        -0.1639822454E+00      0.4016600086E+00
          0                 6           1             4    7     1       0.3642082619E-04       4    8    1         0.2124184340E-02      0.5203000272E-02

    ------------------------------------------------
       NWT REQUIRED            6 OUTER ITERATIONS 
       AND A TOTAL OF         11 INNER ITERATIONS.
    ------------------------------------------------

 NO OUTPUT CONTROL FOR STRESS PERIOD   31   TIME STEP   13
 
 SOLVING FOR HEAD 
                                                   Max.-Head-Change                         Max.-Flux-Residual
  Residual-Control   Outer-Iter.   Inner-Iter.     Column Row Layer    Maximum-Head-Change  Column Row Layer    Maximum-Flux-Residual          L2-NORM 
          0                 1           2             4   13     1       0.6753322530E-02       4   13    1         0.3885331299E+00      0.9803287188E+00
          0                 2           2             4   13     1      -0.6504376748E-03       4   13    1        -0.3847637747E-01      0.9697279394E-01
          0                 3           2             4    7     1      -0.6970082542E-01       5    6    1        -0.3743431788E+01      0.9212796767E+01
          0                 4           2             4    7     1       0.7258326147E-01       5    6    1         0.4006957324E+01      0.9815156410E+01
          0                 5           2             4    7     1      -0.2889712455E-02       4    8    1        -0.1639822752E+00      0.4016600972E+00
          0                 6           1             4    7     1       0.3642082630E-04       4    8    1         0.2124184708E-02      0.5203007559E-02

    ------------------------------------------------
       NWT REQUIRED            6 OUTER ITERATIONS 
       AND A TOTAL OF         11 INNER ITERATIONS.
    ------------------------------------------------

 NO OUTPUT CONTROL FOR STRESS PERIOD   31   TIME STEP   14
 
 SOLVING FOR HEAD 
                                                   Max.-Head-Change                         Max.-Flux-Residual
  Residual-Control   Outer-Iter.   Inner-Iter.     Column Row Layer    Maximum-Head-Change  Column Row Layer    Maximum-Flux-Residual          L2-NORM 
          0                 1           2             4   13     1       0.6974267258E-02       4   13    1         0.4012351907E+00      0.9916003873E+00
          0                 2           2             4   13     1      -0.6717103305E-03       4   13    1        -0.3973383198E-01      0.9803559125E-01
          0                 3           2             4    7     1      -0.6970095555E-01       5    6    1        -0.3743444336E+01      0.9212882234E+01
          0                 4           2             4    7     1       0.7258326234E-01       5    6    1         0.4006958202E+01      0.9815158472E+01
          0                 5           2             4    7     1      -0.2889712490E-02       4    8    1        -0.1639823047E+00      0.4016601859E+00
          0                 6           1             4    7     1       0.3642082720E-04       4    8    1         0.2124185068E-02      0.5203009151E-02

    ------------------------------------------------
       NWT REQUIRED            6 OUTER ITERATIONS 
       AND A TOTAL OF         11 INNER ITERATIONS.
    ------------------------------------------------

 NO OUTPUT CONTROL FOR STRESS PERIOD   31   TIME STEP   15
 
 SOLVING FOR HEAD 
                                                   Max.-Head-Change                         Max.-Flux-Residual
  Residual-Control   Outer-Iter.   Inner-Iter.     Column Row Layer    Maximum-Head-Change  Column Row Layer    Maximum-Flux-Residual          L2-NORM 
          0                 1           2             4   13     1       0.7174695363E-02       4   13    1         0.4127528275E+00      0.1002141071E+01
          0                 2           2             4   13     1      -0.6909961885E-03       4   13    1        -0.4087335817E-01      0.9902843194E-01
          0                 3           2             4    7     1      -0.6970108709E-01       5    6    1        -0.3743456457E+01      0.9212962900E+01
          0                 4           2             4    7     1       0.7258326331E-01       5    6    1         0.4006959051E+01      0.9815160473E+01
          0                 5           2             4    7     1      -0.2889712528E-02       4    8    1        -0.1639823337E+00      0.4016602611E+00
          0                 6           1             4    7     1       0.3642082731E-04       4    8    1         0.2124185450E-02      0.5203013279E-02

    ------------------------------------------------
       NWT REQUIRED            6 OUTER ITERATIONS 
       AND A TOTAL OF         11 INNER ITERATIONS.
    ------------------------------------------------

 NO OUTPUT CONTROL FOR STRESS PERIOD   31   TIME STEP   16
 
 SOLVING FOR HEAD 
                                                   Max.-Head-Change                         Max.-Flux-Residual
  Residual-Control   Outer-Iter.   Inner-Iter.     Column Row Layer    Maximum-Head-Change  Column Row Layer    Maximum-Flux-Residual          L2-NORM 
          0                 1           2             4   13     1       0.7356824244E-02       4   13    1         0.4232144095E+00      0.1011974799E+01
          0                 2           2             4   13     1      -0.7085302242E-03       4   13    1        -0.4190893255E-01      0.9995460347E-01
          0                 3           2             4    7     1      -0.6970121987E-01       5    6    1        -0.3743468121E+01      0.9213039129E+01
          0                 4           2             4    7     1       0.7258326436E-01       5    6    1         0.4006959867E+01      0.9815162424E+01
          0                 5           2             4    7     1      -0.2889712569E-02       4    8    1        -0.1639823623E+00      0.4016603299E+00
          0                 6           1             4    7     1       0.3642082765E-04       4    8    1         0.2124185808E-02      0.5203003235E-02

    ------------------------------------------------
       NWT REQUIRED            6 OUTER ITERATIONS 
       AND A TOTAL OF         11 INNER ITERATIONS.
    ------------------------------------------------

 NO OUTPUT CONTROL FOR STRESS PERIOD   31   TIME STEP   17
 
 SOLVING FOR HEAD 
                                                   Max.-Head-Change                         Max.-Flux-Residual
  Residual-Control   Outer-Iter.   Inner-Iter.     Column Row Layer    Maximum-Head-Change  Column Row Layer    Maximum-Flux-Residual          L2-NORM 
          0                 1           2             4   13     1       0.7522244053E-02       4   13    1         0.4327119988E+00      0.1021119280E+01
          0                 2           2             4   13     1      -0.7244685384E-03       4   13    1        -0.4284984236E-01      0.1008167001E+00
          0                 3           2             4    7     1      -0.6970135372E-01       5    6    1        -0.3743479358E+01      0.9213111021E+01
          0                 4           2             4    7     1       0.7258326548E-01       5    6    1         0.4006960654E+01      0.9815164347E+01
          0                 5           2             4    7     1      -0.2889712614E-02       4    8    1        -0.1639823904E+00      0.4016604392E+00
          0                 6           1             4    7     1       0.3642082832E-04       4    8    1         0.2124186180E-02      0.5203010446E-02

    ------------------------------------------------
       NWT REQUIRED            6 OUTER ITERATIONS 
       AND A TOTAL OF         11 INNER ITERATIONS.
    ------------------------------------------------

 NO OUTPUT CONTROL FOR STRESS PERIOD   31   TIME STEP   18
 
 SOLVING FOR HEAD 
                                                   Max.-Head-Change                         Max.-Flux-Residual
  Residual-Control   Outer-Iter.   Inner-Iter.     Column Row Layer    Maximum-Head-Change  Column Row Layer    Maximum-Flux-Residual          L2-NORM 
          0                 1           2             4   13     1       0.7672559754E-02       4   13    1         0.4413384149E+00      0.1029594051E+01
          0                 2           2             4   13     1      -0.7389357848E-03       4   13    1        -0.4370350124E-01      0.1016148459E+00
          0                 3           2             4    7     1      -0.6970148935E-01       5    6    1        -0.3743490251E+01      0.9213179239E+01
          0                 4           2             4    7     1       0.7258326672E-01       5    6    1         0.4006961417E+01      0.9815166186E+01
          0                 5           2             4    7     1      -0.2889712664E-02       4    8    1        -0.1639824182E+00      0.4016604905E+00
          0                 6           1             4    7     1       0.3642082888E-04       4    8    1         0.2124186536E-02      0.5203015566E-02

    ------------------------------------------------
       NWT REQUIRED            6 OUTER ITERATIONS 
       AND A TOTAL OF         11 INNER ITERATIONS.
    ------------------------------------------------

 NO OUTPUT CONTROL FOR STRESS PERIOD   31   TIME STEP   19
 
 SOLVING FOR HEAD 
                                                   Max.-Head-Change                         Max.-Flux-Residual
  Residual-Control   Outer-Iter.   Inner-Iter.     Column Row Layer    Maximum-Head-Change  Column Row Layer    Maximum-Flux-Residual          L2-NORM 
          0                 1           2             4   13     1       0.7809273201E-02       4   13    1         0.4491803628E+00      0.1037437160E+01
          0                 2           2             4   13     1      -0.7521048927E-03       4   13    1        -0.4448018671E-01      0.1023526611E+00
          0                 3           2             4    7     1      -0.6970162570E-01       5    6    1        -0.3743500820E+01      0.9213244024E+01
          0                 4           2             4    7     1       0.7258326802E-01       5    6    1         0.4006962156E+01      0.9815168007E+01
          0                 5           2             4    7     1      -0.2889712715E-02       4    8    1        -0.1639824456E+00      0.4016605561E+00
          0                 6           1             4    7     1       0.3642082944E-04       4    8    1         0.2124186881E-02      0.5203006996E-02

    ------------------------------------------------
       NWT REQUIRED            6 OUTER ITERATIONS 
       AND A TOTAL OF         11 INNER ITERATIONS.
    ------------------------------------------------

 NO OUTPUT CONTROL FOR STRESS PERIOD   31   TIME STEP   20
 
 SOLVING FOR HEAD 
                                                   Max.-Head-Change                         Max.-Flux-Residual
  Residual-Control   Outer-Iter.   Inner-Iter.     Column Row Layer    Maximum-Head-Change  Column Row Layer    Maximum-Flux-Residual          L2-NORM 
          0                 1           2             4   13     1       0.7933753393E-02       4   13    1         0.4563174441E+00      0.1044684509E+01
          0                 2           2             4   13     1      -0.7640807251E-03       4   13    1        -0.4518617470E-01      0.1030338854E+00
          0                 3           2             4    7     1      -0.6970176261E-01       5    6    1        -0.3743511030E+01      0.9213305353E+01
          0                 4           2             4    7     1       0.7258326937E-01       5    6    1         0.4006962871E+01      0.9815169773E+01
          0                 5           2             4    7     1      -0.2889712769E-02       4    8    1        -0.1639824726E+00      0.4016606349E+00
          0                 6           1             4    7     1       0.3642082966E-04       4    8    1         0.2124187203E-02      0.5203026831E-02

    ------------------------------------------------
       NWT REQUIRED            6 OUTER ITERATIONS 
       AND A TOTAL OF         11 INNER ITERATIONS.
    ------------------------------------------------

 NO OUTPUT CONTROL FOR STRESS PERIOD   31   TIME STEP   21
 
 SOLVING FOR HEAD 
                                                   Max.-Head-Change                         Max.-Flux-Residual
  Residual-Control   Outer-Iter.   Inner-Iter.     Column Row Layer    Maximum-Head-Change  Column Row Layer    Maximum-Flux-Residual          L2-NORM 
          0                 1           2             4   13     1       0.8047008156E-02       4   13    1         0.4628075698E+00      0.1051365205E+01
          0                 2           2             4   13     1      -0.7749767038E-03       4   13    1        -0.4582818549E-01      0.1036601771E+00
          0                 3           2             4    7     1      -0.6970190083E-01       5    6    1        -0.3743520900E+01      0.9213363798E+01
          0                 4           2             4    7     1       0.7258327081E-01       5    6    1         0.4006963562E+01      0.9815171523E+01
          0                 5           2             4    7     1      -0.2889712826E-02       4    8    1        -0.1639824991E+00      0.4016607235E+00
          0                 6           1             4    7     1       0.3642083022E-04       4    8    1         0.2124187556E-02      0.5203018190E-02

    ------------------------------------------------
       NWT REQUIRED            6 OUTER ITERATIONS 
       AND A TOTAL OF         11 INNER ITERATIONS.
    ------------------------------------------------

 NO OUTPUT CONTROL FOR STRESS PERIOD   31   TIME STEP   22
 
 SOLVING FOR HEAD 
                                                   Max.-Head-Change                         Max.-Flux-Residual
  Residual-Control   Outer-Iter.   Inner-Iter.     Column Row Layer    Maximum-Head-Change  Column Row Layer    Maximum-Flux-Residual          L2-NORM 
          0                 1           2             4   13     1       0.8150218177E-02       4   13    1         0.4687189329E+00      0.1057518399E+01
          0                 2           2             4   13     1      -0.7849042738E-03       4   13    1        -0.4641281103E-01      0.1042376101E+00
          0                 3           2             4    7     1      -0.6970203930E-01       5    6    1        -0.3743530509E+01      0.9213419317E+01
          0                 4           2             4    7     1       0.7258327229E-01       5    6    1         0.4006964235E+01      0.9815173207E+01
          0                 5           2             4    7     1      -0.2889712885E-02       4    8    1        -0.1639825254E+00      0.4016607804E+00
          0                 6           1             4    7     1       0.3642083123E-04       4    8    1         0.2124187881E-02      0.5203021530E-02

    ------------------------------------------------
       NWT REQUIRED            6 OUTER ITERATIONS 
       AND A TOTAL OF         11 INNER ITERATIONS.
    ------------------------------------------------

 NO OUTPUT CONTROL FOR STRESS PERIOD   31   TIME STEP   23
 
 SOLVING FOR HEAD 
                                                   Max.-Head-Change                         Max.-Flux-Residual
  Residual-Control   Outer-Iter.   Inner-Iter.     Column Row Layer    Maximum-Head-Change  Column Row Layer    Maximum-Flux-Residual          L2-NORM 
          0                 1           2             4   13     1       0.8244233599E-02       4   13    1         0.4741010152E+00      0.1063167908E+01
          0                 2           2             4   13     1      -0.7939456239E-03       4   13    1        -0.4694496831E-01      0.1047668489E+00
          0                 3           2             4    7     1      -0.6970217792E-01       5    6    1        -0.3743539812E+01      0.9213472025E+01
          0                 4           2             4    7     1       0.7258327380E-01       5    6    1         0.4006964886E+01      0.9815174821E+01
          0                 5           2             4    7     1      -0.2889712945E-02       4    8    1        -0.1639825512E+00      0.4016608078E+00
          0                 6           1             4    7     1       0.3642083179E-04       4    8    1         0.2124188206E-02      0.5203019345E-02

    ------------------------------------------------
       NWT REQUIRED            6 OUTER ITERATIONS 
       AND A TOTAL OF         11 INNER ITERATIONS.
    ------------------------------------------------

 NO OUTPUT CONTROL FOR STRESS PERIOD   31   TIME STEP   24
 
 SOLVING FOR HEAD 
                                                   Max.-Head-Change                         Max.-Flux-Residual
  Residual-Control   Outer-Iter.   Inner-Iter.     Column Row Layer    Maximum-Head-Change  Column Row Layer    Maximum-Flux-Residual          L2-NORM 
          0                 1           2             4   13     1       0.8330043749E-02       4   13    1         0.4790107433E+00      0.1068352303E+01
          0                 2           2             4   13     1      -0.8022125046E-03       4   13    1        -0.4743129533E-01      0.1052526153E+00
          0                 3           2             4    7     1      -0.6970231747E-01       5    8    1        -0.3743549408E+01      0.9213522392E+01
          0                 4           2             4    7     1       0.7258327538E-01       5    6    1         0.4006965522E+01      0.9815176485E+01
          0                 5           2             4    7     1      -0.2889713008E-02       4    8    1        -0.1639825767E+00      0.4016609110E+00
          0                 6           1             4    7     1       0.3642083269E-04       4    8    1         0.2124188547E-02      0.5203016020E-02

    ------------------------------------------------
       NWT REQUIRED            6 OUTER ITERATIONS 
       AND A TOTAL OF         11 INNER ITERATIONS.
    ------------------------------------------------

 NO OUTPUT CONTROL FOR STRESS PERIOD   31   TIME STEP   25
 
 SOLVING FOR HEAD 
                                                   Max.-Head-Change                         Max.-Flux-Residual
  Residual-Control   Outer-Iter.   Inner-Iter.     Column Row Layer    Maximum-Head-Change  Column Row Layer    Maximum-Flux-Residual          L2-NORM 
          0                 1           2             4   13     1       0.8408328587E-02       4   13    1         0.4834873254E+00      0.1073101319E+01
          0                 2           2             4   13     1      -0.8097393558E-03       4   13    1        -0.4787383448E-01      0.1056958019E+00
          0                 3           2             4    7     1      -0.6970245693E-01       5    8    1        -0.3743558864E+01      0.9213570379E+01
          0                 4           2             4    7     1       0.7258327698E-01       5    6    1         0.4006966134E+01      0.9815178077E+01
          0                 5           2             4    7     1      -0.2889713071E-02       4    8    1        -0.1639826019E+00      0.4016609760E+00
          0                 6           1             4    7     1       0.3642083336E-04       4    8    1         0.2124188861E-02      0.5203020352E-02

    ------------------------------------------------
       NWT REQUIRED            6 OUTER ITERATIONS 
       AND A TOTAL OF         11 INNER ITERATIONS.
    ------------------------------------------------

 NO OUTPUT CONTROL FOR STRESS PERIOD   31   TIME STEP   26
 
 SOLVING FOR HEAD 
                                                   Max.-Head-Change                         Max.-Flux-Residual
  Residual-Control   Outer-Iter.   Inner-Iter.     Column Row Layer    Maximum-Head-Change  Column Row Layer    Maximum-Flux-Residual          L2-NORM 
          0                 1           2             4   13     1       0.8479806058E-02       4   13    1         0.4875723218E+00      0.1077446000E+01
          0                 2           2             4   13     1      -0.8166108737E-03       4   13    1        -0.4827760299E-01      0.1061009947E+00
          0                 3           2             4    7     1      -0.6970259619E-01       5    8    1        -0.3743568038E+01      0.9213616155E+01
          0                 4           2             4    7     1       0.7258327860E-01       5    6    1         0.4006966736E+01      0.9815179612E+01
          0                 5           2             4    7     1      -0.2889713136E-02       4    8    1        -0.1639826266E+00      0.4016610329E+00
          0                 6           1             4    7     1       0.3642083425E-04       4    8    1         0.2124189165E-02      0.5203017508E-02

    ------------------------------------------------
       NWT REQUIRED            6 OUTER ITERATIONS 
       AND A TOTAL OF         11 INNER ITERATIONS.
    ------------------------------------------------

 NO OUTPUT CONTROL FOR STRESS PERIOD   31   TIME STEP   27
 
 SOLVING FOR HEAD 
                                                   Max.-Head-Change                         Max.-Flux-Residual
  Residual-Control   Outer-Iter.   Inner-Iter.     Column Row Layer    Maximum-Head-Change  Column Row Layer    Maximum-Flux-Residual          L2-NORM 
          0                 1           2             4   13     1       0.8545104935E-02       4   13    1         0.4913019523E+00      0.1081414906E+01
          0                 2           2             4   13     1      -0.8228970028E-03       4   13    1        -0.4864675178E-01      0.1064703698E+00
          0                 3           2             4    7     1      -0.6970273606E-01       5    8    1        -0.3743576946E+01      0.9213660333E+01
          0                 4           2             4    7     1       0.7258328028E-01       5    6    1         0.4006967317E+01      0.9815181157E+01
          0                 5           2             4    7     1      -0.2889713202E-02       4    8    1        -0.1639826511E+00      0.4016610975E+00
          0                 6           1             4    7     1       0.3642083481E-04       4    8    1         0.2124189464E-02      0.5203020941E-02

    ------------------------------------------------
       NWT REQUIRED            6 OUTER ITERATIONS 
       AND A TOTAL OF         11 INNER ITERATIONS.
    ------------------------------------------------

 NO OUTPUT CONTROL FOR STRESS PERIOD   31   TIME STEP   28
 
 SOLVING FOR HEAD 
                                                   Max.-Head-Change                         Max.-Flux-Residual
  Residual-Control   Outer-Iter.   Inner-Iter.     Column Row Layer    Maximum-Head-Change  Column Row Layer    Maximum-Flux-Residual          L2-NORM 
          0                 1           2             4   13     1       0.8604820264E-02       4   13    1         0.4947106618E+00      0.1085025941E+01
          0                 2           2             4   13     1      -0.8286453822E-03       4   13    1        -0.4898412966E-01      0.1068063842E+00
          0                 3           2             4    7     1      -0.6970287555E-01       5    8    1        -0.3743585656E+01      0.9213702422E+01
          0                 4           2             4    7     1       0.7258328196E-01       5    6    1         0.4006967886E+01      0.9815182662E+01
          0                 5           2             4    7     1      -0.2889713269E-02       4    8    1        -0.1639826753E+00      0.4016611556E+00
          0                 6           1             4    7     1       0.3642083537E-04       4    8    1         0.2124189782E-02      0.5203021417E-02

    ------------------------------------------------
       NWT REQUIRED            6 OUTER ITERATIONS 
       AND A TOTAL OF         11 INNER ITERATIONS.
    ------------------------------------------------

 NO OUTPUT CONTROL FOR STRESS PERIOD   31   TIME STEP   29
 
 SOLVING FOR HEAD 
                                                   Max.-Head-Change                         Max.-Flux-Residual
  Residual-Control   Outer-Iter.   Inner-Iter.     Column Row Layer    Maximum-Head-Change  Column Row Layer    Maximum-Flux-Residual          L2-NORM 
          0                 1           2             4   13     1       0.8659459655E-02       4   13    1         0.4978277786E+00      0.1088314993E+01
          0                 2           2             4   13     1      -0.8338976083E-03       4   13    1        -0.4929219320E-01      0.1071110234E+00
          0                 3           2             4    7     1      -0.6970301458E-01       5    8    1        -0.3743594182E+01      0.9213742794E+01
          0                 4           2             4    7     1       0.7258328364E-01       5    6    1         0.4006968439E+01      0.9815184133E+01
          0                 5           2             4    7     1      -0.2889713336E-02       4    8    1        -0.1639826991E+00      0.4016612208E+00
          0                 6           1             4    7     1       0.3642083616E-04       4    8    1         0.2124190065E-02      0.5203025189E-02

    ------------------------------------------------
       NWT REQUIRED            6 OUTER ITERATIONS 
       AND A TOTAL OF         11 INNER ITERATIONS.
    ------------------------------------------------

 NO OUTPUT CONTROL FOR STRESS PERIOD   31   TIME STEP   30



 STREAM LISTING     PERIOD     31   STEP       30

 LAYER ROW COL. STREAM  RCH.  FLOW INTO     FLOW TO   FLOW OUT OF   OVRLND.     DIRECT     STREAM       STREAM     STREAM     STREAM   STREAMBED  STREAMBED
                SEG.NO.  NO.  STRM. RCH.    AQUIFER    STRM. RCH.    RUNOFF     PRECIP       ET          HEAD       DEPTH      WIDTH   CONDCTNC.   GRADIENT

   1    1    1     1     1    3.1124E+01  2.7164E-01   3.0852E+01  0.000E+00  0.000E+00  0.000E+00  1.09431E+03  1.259E+00  1.417E+01  6.378E-02  1.420E+00
   1    2    2     1     2    3.0852E+01  4.2045E-01   3.0432E+01  0.000E+00  0.000E+00  0.000E+00  1.08931E+03  1.256E+00  1.411E+01  9.879E-02  1.419E+00
   1    3    3     1     3    3.0432E+01  3.5834E-01   3.0074E+01  0.000E+00  0.000E+00  0.000E+00  1.08367E+03  1.252E+00  1.404E+01  8.427E-02  1.417E+00
   1    3    4     1     4    3.0074E+01  3.2975E-01   2.9744E+01  0.000E+00  0.000E+00  0.000E+00  1.07866E+03  1.249E+00  1.398E+01  7.761E-02  1.416E+00
   1    4    5     2     1    2.7744E+01  3.3390E-01   2.7410E+01  0.000E+00  0.000E+00  0.000E+00  1.07321E+03  1.281E+00  1.200E+01  7.800E-02  1.427E+00
   1    5    6     2     2    2.7410E+01  2.5635E-01   2.7154E+01  0.000E+00  0.000E+00  0.000E+00  1.06778E+03  1.273E+00  1.200E+01  6.000E-02  1.424E+00
   1    6    6     2     3    2.7154E+01  2.5592E-01   2.6898E+01  0.000E+00  0.000E+00  0.000E+00  1.06306E+03  1.265E+00  1.200E+01  6.000E-02  1.422E+00
   1    7    6     2     4    2.6898E+01  2.5549E-01   2.6642E+01  0.000E+00  0.000E+00  0.000E+00  1.05833E+03  1.258E+00  1.200E+01  6.000E-02  1.419E+00
   1    8    6     2     5    2.6642E+01  2.5506E-01   2.6387E+01  0.000E+00  0.000E+00  0.000E+00  1.05361E+03  1.251E+00  1.200E+01  6.000E-02  1.417E+00
   1    3    5     3     1    2.0000E+00  2.8252E-01   1.7175E+00  0.000E+00  0.000E+00  0.000E+00  1.07555E+03  1.909E+00  9.636E+00  7.227E-02  1.955E+00
   1    3    6     3     2    1.7175E+00  2.4905E-01   1.4684E+00  0.000E+00  0.000E+00  0.000E+00  1.07264E+03  1.727E+00  8.909E+00  6.682E-02  1.864E+00
   1    3    7     3     3    1.4684E+00  1.9718E-01   1.2712E+00  0.000E+00  0.000E+00  0.000E+00  1.06987E+03  1.555E+00  8.218E+00  5.547E-02  1.777E+00
   1    4    8     3     4    1.2712E+00  2.2567E-01   1.0456E+00  0.000E+00  0.000E+00  0.000E+00  1.06682E+03  1.364E+00  7.455E+00  6.709E-02  1.682E+00
   1    5    8     3     5    1.0456E+00  1.5790E-01   8.8768E-01  0.000E+00  0.000E+00  0.000E+00  1.06362E+03  1.164E+00  6.655E+00  4.991E-02  1.582E+00
   1    6    8     3     6    8.8768E-01  5.5980E-02   8.3170E-01  0.000E+00  0.000E+00  0.000E+00  1.06158E+03  1.036E+00  6.145E+00  1.844E-02  1.518E+00
   1    5   10     4     1    1.0000E+01  9.0919E-02   9.9091E+00  0.000E+00  0.000E+00  0.000E+00  1.07836E+03  6.368E-01  1.000E+01  2.500E-02  1.212E+00
   1    5    9     4     2    9.9091E+00  1.8158E-01   9.7275E+00  0.000E+00  0.000E+00  0.000E+00  1.07154E+03  6.315E-01  1.000E+01  5.000E-02  1.211E+00
   1    6    8     4     3    9.7275E+00  1.2689E-01   9.6006E+00  0.000E+00  0.000E+00  0.000E+00  1.06381E+03  6.256E-01  1.000E+01  3.500E-02  1.209E+00
   1    6    8     5     1    1.0432E+01  2.2686E-01   1.0205E+01  0.000E+00  0.000E+00  0.000E+00  1.05868E+03  6.790E-01  1.542E+01  6.166E-02  1.226E+00
   1    7    7     5     2    1.0205E+01  2.7894E-01   9.9265E+00  0.000E+00  0.000E+00  0.000E+00  1.05417E+03  6.732E-01  1.519E+01  7.594E-02  1.224E+00
   1    8    7     5     3    9.9265E+00  1.9221E-01   9.7343E+00  0.000E+00  0.000E+00  0.000E+00  1.04992E+03  6.676E-01  1.497E+01  5.241E-02  1.223E+00
   1    8    6     5     4    9.7343E+00  1.3577E-01   9.5985E+00  0.000E+00  0.000E+00  0.000E+00  1.04691E+03  6.637E-01  1.482E+01  3.706E-02  1.221E+00
   1    9    6     6     1    1.3516E+01  2.3040E-01   1.3286E+01  0.000E+00  0.000E+00  0.000E+00  1.04357E+03  8.399E-01  1.200E+01  6.000E-02  1.280E+00
   1   10    7     6     2    1.3286E+01  2.2988E-01   1.3056E+01  0.000E+00  0.000E+00  0.000E+00  1.03901E+03  8.313E-01  1.200E+01  6.000E-02  1.277E+00
   1   11    7     6     3    1.3056E+01  2.2935E-01   1.2827E+01  0.000E+00  0.000E+00  0.000E+00  1.03446E+03  8.225E-01  1.200E+01  6.000E-02  1.274E+00
   1   12    7     6     4    1.2827E+01  2.2883E-01   1.2598E+01  0.000E+00  0.000E+00  0.000E+00  1.02990E+03  8.138E-01  1.200E+01  6.000E-02  1.271E+00
   1   13    7     6     5    1.2598E+01  6.7216E-04   1.2597E+01  0.000E+00  0.000E+00  0.000E+00  1.02672E+03  8.094E-01  1.200E+01  2.400E-02  9.335E-03
   1   14    9     7     1    1.5000E+02  1.3797E+00   1.4862E+02  0.000E+00  0.000E+00  0.000E+00  1.03987E+03  2.288E+00  5.529E+01  5.593E-01  8.223E-01
   1   13    8     7     2    1.4862E+02  1.9624E+00   1.4666E+02  0.000E+00  0.000E+00  0.000E+00  1.03478E+03  2.279E+00  5.525E+01  6.147E-01  1.064E+00
   1   13    7     7     3    1.4666E+02  1.6740E+00   1.4498E+02  0.000E+00  0.000E+00  0.000E+00  1.02969E+03  2.269E+00  5.521E+01  5.584E-01  9.993E-01
   1   13    6     8     1    1.5758E+02  1.0493E+00   1.5653E+02  0.000E+00  0.000E+00  0.000E+00  1.02474E+03  2.866E+00  4.155E+01  4.235E-01  8.260E-01
   1   13    5     8     2    1.5653E+02  3.0110E-01   1.5623E+02  0.000E+00  0.000E+00  0.000E+00  1.01849E+03  2.861E+00  4.149E+01  4.228E-01  2.374E-01
   1   13    4     8     3    1.5623E+02 -2.0074E+00   1.5824E+02  0.000E+00  0.000E+00  0.000E+00  1.01224E+03  2.867E+00  4.157E+01  4.236E+00 -1.579E-01
   1   13    3     8     4    1.5824E+02 -3.4472E+00   1.6169E+02  0.000E+00  0.000E+00  0.000E+00  1.00601E+03  2.886E+00  4.184E+01  4.264E+00 -2.695E-01
   1   13    2     8     5    1.6169E+02 -2.5651E+00   1.6425E+02  0.000E+00  0.000E+00  0.000E+00  9.99781E+02  2.906E+00  4.213E+01  4.294E+00 -1.991E-01
   1   13    1     8     6    1.6425E+02 -2.0163E+00   1.6627E+02  0.000E+00  0.000E+00  0.000E+00  9.94796E+02  2.921E+00  4.236E+01  2.590E+00 -2.595E-01
   1    8    6     9     1    2.2470E+01  0.0000E+00   2.2470E+01  0.000E+00  0.000E+00  0.000E+00  1.08243E+03  3.683E+00  4.000E+00  0.000E+00  2.228E+00
   1    8    5     9     2    2.2470E+01  0.0000E+00   2.2470E+01  0.000E+00  0.000E+00  0.000E+00  1.08193E+03  3.683E+00  4.000E+00  0.000E+00  2.228E+00





UNSATURATED ZONE PACKAGE VOLUMETRIC BUDGET FOR  TIME STEP    30 STRESS PERIOD   31
  ------------------------------------------------------------------------------



     CUMULATIVE VOLUMES      L**3       RATES FOR THIS TIME STEP      L**3/T
     ------------------                 ------------------------

           IN:                                      IN:
           ---                                      ---
        INFILTRATION =   956488451.7759          INFILTRATION =          23.3175

          OUT:                                     OUT:
          ----                                     ----
              UZF ET =   952604943.5774                UZF ET =          23.3175
        UZF RECHARGE =       73224.0000          UZF RECHARGE =       0.0000E+00

            IN - OUT =     3810284.1985              IN - OUT =       2.8610E-06

          STORAGE:                                 STORAGE:
          --------                                 --------
      STORAGE CHANGE =     3810281.0204        STORAGE CHANGE =       2.1316E-06

 PERCENT DISCREPANCY IS DIFFERENCE BETWEEN IN-OUT MINUS CHANGE IN STORAGE
 DIVIDED BY THE AVERAGE OF IN AND OUT TIMES 100

 PERCENT DISCREPANCY =           0.00     PERCENT DISCREPANCY =           0.00






1
  VOLUMETRIC BUDGET FOR AGRICULTURAL FIELDS AT  END OF TIME STEP   30, STRESS PERIOD  31
  ------------------------------------------------------------------------------

     CUMULATIVE VOLUMES      L**3       RATES FOR THIS TIME STEP      L**3/T
     ------------------                 ------------------------

           IN:                                      IN:
           ---                                      ---
           AG WELLS      =   429009216.0000             AG WELLS      =           0.0000
      DIVERSION SEGMENTS =   460589920.0000        DIVERSION SEGMENTS =          22.4696
           GW IRRIGATION =           0.0000             GW IRRIGATION =           0.0000
           SW IRRIGATION =           0.0000             SW IRRIGATION =           0.0000
        SYSTEM LOSSES GW =           0.0000          SYSTEM LOSSES GW =           0.0000
        SYSTEM LOSSES SW =           0.0000          SYSTEM LOSSES SW =           0.0000

                TOTAL IN =   889599104.0000                  TOTAL IN =          22.4696

          OUT:                                     OUT:
          ----                                     ----
           AG WELLS      =           0.0000             AG WELLS      =           0.0000
      DIVERSION SEGMENTS =           0.0000        DIVERSION SEGMENTS =           0.0000
           GW IRRIGATION =   429009216.0000             GW IRRIGATION =           0.0000
           SW IRRIGATION =   460598432.0000             SW IRRIGATION =          22.4700
        SYSTEM LOSSES GW =           0.0000          SYSTEM LOSSES GW =           0.0000
        SYSTEM LOSSES SW =           0.0000          SYSTEM LOSSES SW =           0.0000

               TOTAL OUT =   889607680.0000                 TOTAL OUT =          22.4700

                IN - OUT =       -8576.0000                  IN - OUT =      -4.4823E-04

     PERCENT DISCREPANCY =          -0.00         PERCENT DISCREPANCY =          -0.00



1
  VOLUMETRIC BUDGET FOR ENTIRE MODEL AT END OF TIME STEP   30, STRESS PERIOD  31
  ------------------------------------------------------------------------------

     CUMULATIVE VOLUMES      L**3       RATES FOR THIS TIME STEP      L**3/T
     ------------------                 ------------------------

           IN:                                      IN:
           ---                                      ---
             STORAGE     =   651941888.0000               STORAGE     =           1.4820
       CONSTANT HEAD     =           0.0000         CONSTANT HEAD     =           0.0000
     HEAD DEP BOUNDS     =    22762212.0000       HEAD DEP BOUNDS     =           0.2887
      STREAM LEAKAGE     =   930284736.0000        STREAM LEAKAGE     =          12.4240
        UZF RECHARGE     =       73223.9531          UZF RECHARGE     =           0.0000
               GW ET     =           0.0000                 GW ET     =           0.0000
     SURFACE LEAKAGE     =           0.0000       SURFACE LEAKAGE     =           0.0000
           AG WELLS      =           0.0000             AG WELLS      =           0.0000

                TOTAL IN =  1605062144.0000                  TOTAL IN =          14.1947

          OUT:                                     OUT:
          ----                                     ----
             STORAGE     =   350665504.0000               STORAGE     =           3.8707
       CONSTANT HEAD     =           0.0000         CONSTANT HEAD     =           0.0000
     HEAD DEP BOUNDS     =    22745902.0000       HEAD DEP BOUNDS     =           0.2878
      STREAM LEAKAGE     =   802652864.0000        STREAM LEAKAGE     =          10.0360
        UZF RECHARGE     =           0.0000          UZF RECHARGE     =           0.0000
               GW ET     =           0.0000                 GW ET     =           0.0000
     SURFACE LEAKAGE     =           0.0000       SURFACE LEAKAGE     =           0.0000
           AG WELLS      =   429009216.0000             AG WELLS      =           0.0000

               TOTAL OUT =  1605073408.0000                 TOTAL OUT =          14.1945

                IN - OUT =      -11264.0000                  IN - OUT =       1.9264E-04

     PERCENT DISCREPANCY =          -0.00         PERCENT DISCREPANCY =           0.00






         TIME SUMMARY AT END OF TIME STEP   30 IN STRESS PERIOD   31
                    SECONDS     MINUTES      HOURS       DAYS        YEARS
                    -----------------------------------------------------------
   TIME STEP LENGTH  87667.      1461.1      24.352      1.0147     2.77799E-03
 STRESS PERIOD TIME 2.63000E+06  43833.      730.56      30.440     8.33397E-02
         TOTAL TIME 7.89864E+07 1.31644E+06  21941.      914.20      2.5029    
1
1
                            STRESS PERIOD NO.   32, LENGTH =   2630000.    
                            -----------------------------------------------

                              NUMBER OF TIME STEPS =    30

                               MULTIPLIER FOR DELT =     1.000

                            INITIAL TIME STEP SIZE =   87666.66    

 REUSING NON-PARAMETER GHB CELLS FROM LAST STRESS PERIOD

      2 GHB CELLS

 REUSING STREAM SEGMENT DATA FROM LAST STRESS PERIOD



            AREAL INFILTRATION RATE
 READING ON UNIT   19 WITH FORMAT: (FREE)              

            1           2           3           4           5           6           7           8           9          10
 ........................................................................................................................
   1   1.0000E-10  2.0000E-10   0.000       0.000       0.000       0.000       0.000       0.000       0.000       0.000    
   2   2.0000E-10  1.0000E-10  2.0000E-10   0.000       0.000      8.0000E-10  8.0000E-10  5.0000E-10   0.000       0.000    
   3    0.000      5.0000E-10  1.0000E-10  1.0000E-10  8.0000E-10  8.0000E-10  5.0000E-10  5.0000E-10   0.000       0.000    
   4   8.0000E-10  5.0000E-10  1.0000E-10  1.0000E-10  1.0000E-10  1.0000E-10  1.0000E-10  1.0000E-10  2.0000E-10   0.000    
   5   8.0000E-10  5.0000E-10  1.0000E-10  1.0000E-10  1.0000E-10  1.0000E-10  1.0000E-10  1.0000E-10  1.0000E-10  1.0000E-10
   6   8.0000E-10  5.0000E-10  5.0000E-10  2.0000E-10  2.0000E-10  1.0000E-10  1.0000E-10  1.0000E-10  1.0000E-10  5.0000E-10
   7   8.0000E-10  5.0000E-10  5.0000E-10  2.0000E-10  2.0000E-10  1.0000E-10  1.0000E-10  2.0000E-10  2.0000E-10   0.000    
   8    0.000      5.0000E-10  5.0000E-10  2.0000E-10  2.0000E-10  1.0000E-10  1.0000E-10  2.0000E-10  5.0000E-10   0.000    
   9    0.000      5.0000E-10  5.0000E-10  2.0000E-10  2.0000E-10  1.0000E-10  1.0000E-10  2.0000E-10  5.0000E-10   0.000    
  10    0.000      5.0000E-10  5.0000E-10  2.0000E-10  2.0000E-10  1.0000E-10  1.0000E-10  2.0000E-10  5.0000E-10  8.0000E-10
  11    0.000      1.0000E-10  1.0000E-10  1.0000E-10  1.0000E-10  1.0000E-10  1.0000E-10  2.0000E-10  5.0000E-10   0.000    
  12   1.0000E-10  1.0000E-10  1.0000E-10  1.0000E-10  1.0000E-10  1.0000E-10  1.0000E-10  1.0000E-10  2.0000E-10   0.000    
  13   1.0000E-10  1.0000E-10  2.0000E-10  2.0000E-10  2.0000E-10  2.0000E-10  2.0000E-10  1.0000E-10  1.0000E-10   0.000    
  14    0.000      2.0000E-10  5.0000E-10  5.0000E-10  5.0000E-10  5.0000E-10  5.0000E-10  2.0000E-10  1.0000E-10   0.000    
  15    0.000       0.000      8.0000E-10  8.0000E-10  8.0000E-10  8.0000E-10   0.000       0.000       0.000       0.000    

                  ET RATE =  4.000000E-07

 USING ET EXTINCTION DEPTH FROM PREVIOUS STRESS PERIOD. CURRENT PERIOD IS:      32

 USING EXTINCTION WATER CONTENT FROM PREVIOUS STRESS PERIOD. CURRENT PERIOD IS:      32

 USING AIR ENTRY PRESSURE FROM PREVIOUS STRESS PERIOD. CURRENT PERIOD IS:      32

 USING ROOT PRESSURE HEAD FROM PREVIOUS STRESS PERIOD. CURRENT PERIOD IS:      32

 USING ROOT ACTIVITY FROM PREVIOUS STRESS PERIOD. CURRENT PERIOD IS:      32

 PROCESSING AG STRESS PERIOD DATA

 READING AG STRESS PERIOD DATA

 READING IRRIGATION SEGMENT

 READING IRRIGATION WELL

 READING SUPPLEMENTAL WELL

 END PROCESSING AG STRESS PERIOD DATA OPTIONS
 
 SOLVING FOR HEAD 
                                                   Max.-Head-Change                         Max.-Flux-Residual
  Residual-Control   Outer-Iter.   Inner-Iter.     Column Row Layer    Maximum-Head-Change  Column Row Layer    Maximum-Flux-Residual          L2-NORM 
          0                 1           2             4    7     1       0.4302848540E-02       4    7    1         0.2246935337E+00      0.7564509146E+00
          0                 2           2             4    7     1      -0.2280654123E+00       4    7    1        -0.1224803051E+02      0.2999544504E+02
          0                 3           2             4    7     1       0.1552470070E-01       5    7    1         0.8571803936E+00      0.2097368097E+01
          0                 4           2             4    7     1      -0.6177439358E-03       5    7    1        -0.3505881038E-01      0.8578321269E-01
          0                 5           1             4    7     1       0.7617048379E-05       5    7    1         0.4443030493E-03      0.1087160289E-02

    ------------------------------------------------
       NWT REQUIRED            5 OUTER ITERATIONS 
       AND A TOTAL OF          9 INNER ITERATIONS.
    ------------------------------------------------

 NO OUTPUT CONTROL FOR STRESS PERIOD   32   TIME STEP    1
 
 SOLVING FOR HEAD 
                                                   Max.-Head-Change                         Max.-Flux-Residual
  Residual-Control   Outer-Iter.   Inner-Iter.     Column Row Layer    Maximum-Head-Change  Column Row Layer    Maximum-Flux-Residual          L2-NORM 
          0                 1           2             5    8     1       0.9875652838E-02       5    8    1         0.5341843536E+00      0.1344120670E+01
          0                 2           2             4    7     1      -0.2793835023E-01       5    8    1        -0.1523543822E+01      0.3733338154E+01
          0                 3           2             4    7     1      -0.4495643086E-01       4    7    1        -0.2413007343E+01      0.5934465109E+01
          0                 4           2             4    7     1       0.4568977701E-01       4    7    1         0.2520890469E+01      0.6174869614E+01
          0                 5           2             4    7     1      -0.3453671605E-02       4    7    1        -0.1958644666E+00      0.4797344602E+00
          0                 6           2             4    7     1      -0.2091276603E-01       5    8    1        -0.1185995646E+01      0.2905079930E+01
          0                 7           2             4    7     1       0.2582554920E-03       4    7    1         0.1505303232E-01      0.3687375849E-01
          0                 8           1             4    7     1       0.3793361217E-05       5    8    1         0.2214542355E-03      0.5429889908E-03

    ------------------------------------------------
       NWT REQUIRED            8 OUTER ITERATIONS 
       AND A TOTAL OF         15 INNER ITERATIONS.
    ------------------------------------------------

 NO OUTPUT CONTROL FOR STRESS PERIOD   32   TIME STEP    2
 
 SOLVING FOR HEAD 
                                                   Max.-Head-Change                         Max.-Flux-Residual
  Residual-Control   Outer-Iter.   Inner-Iter.     Column Row Layer    Maximum-Head-Change  Column Row Layer    Maximum-Flux-Residual          L2-NORM 
          0                 1           2             5    8     1       0.1102722371E-01       5    8    1         0.5973395171E+00      0.1452314326E+01
          0                 2           2             4    7     1      -0.9394639165E-01       5    8    1        -0.5070871821E+01      0.1243286065E+02
          0                 3           2             4    7     1       0.7336023148E-02       5    8    1         0.4066727070E+00      0.9965679543E+00
          0                 4           2             4    7     1      -0.1226797343E-01       4    8    1        -0.6958322379E+00      0.1704344434E+01
          0                 5           2             4    7     1       0.1511911177E-03       4    7    1         0.8817161046E-02      0.2146652059E-01
          0                 6           1             4    7     1       0.2223602863E-05       5    8    1         0.1299040080E-03      0.3165410130E-03

    ------------------------------------------------
       NWT REQUIRED            6 OUTER ITERATIONS 
       AND A TOTAL OF         11 INNER ITERATIONS.
    ------------------------------------------------

 NO OUTPUT CONTROL FOR STRESS PERIOD   32   TIME STEP    3
 
 SOLVING FOR HEAD 
                                                   Max.-Head-Change                         Max.-Flux-Residual
  Residual-Control   Outer-Iter.   Inner-Iter.     Column Row Layer    Maximum-Head-Change  Column Row Layer    Maximum-Flux-Residual          L2-NORM 
          0                 1           2             5    8     1       0.1354453127E-01       5    8    1         0.7356499527E+00      0.1691993976E+01
          0                 2           2             4    7     1      -0.9792121596E-01       5    8    1        -0.5294585801E+01      0.1296853302E+02
          0                 3           2             4    7     1       0.6731780444E-02       5    8    1         0.3740617600E+00      0.9162337566E+00
          0                 4           2             4    7     1      -0.1503790492E-01       5    8    1        -0.8529306385E+00      0.2089138993E+01
          0                 5           2             4    7     1       0.1854224320E-03       4    7    1         0.1080784744E-01      0.2647773801E-01
          0                 6           1             4    7     1       0.2727050923E-05       5    8    1         0.1592322815E-03      0.3904211655E-03

    ------------------------------------------------
       NWT REQUIRED            6 OUTER ITERATIONS 
       AND A TOTAL OF         11 INNER ITERATIONS.
    ------------------------------------------------

 NO OUTPUT CONTROL FOR STRESS PERIOD   32   TIME STEP    4
 
 SOLVING FOR HEAD 
                                                   Max.-Head-Change                         Max.-Flux-Residual
  Residual-Control   Outer-Iter.   Inner-Iter.     Column Row Layer    Maximum-Head-Change  Column Row Layer    Maximum-Flux-Residual          L2-NORM 
          0                 1           2             5    8     1       0.1614378013E-01       5    8    1         0.8784175189E+00      0.1959582904E+01
          0                 2           2             4    7     1      -0.9827378370E-01       5    8    1        -0.5323971867E+01      0.1302968233E+02
          0                 3           2             4    7     1       0.6694843118E-02       5    8    1         0.3727614692E+00      0.9122923997E+00
          0                 4           2             4    7     1      -0.1514671703E-01       5    8    1        -0.8591312849E+00      0.2104294588E+01
          0                 5           2             4    7     1       0.1867641113E-03       4    7    1         0.1088510372E-01      0.2666925237E-01
          0                 6           1             4    7     1       0.2746783096E-05       5    8    1         0.1603887429E-03      0.3932986356E-03

    ------------------------------------------------
       NWT REQUIRED            6 OUTER ITERATIONS 
       AND A TOTAL OF         11 INNER ITERATIONS.
    ------------------------------------------------

 NO OUTPUT CONTROL FOR STRESS PERIOD   32   TIME STEP    5
 
 SOLVING FOR HEAD 
                                                   Max.-Head-Change                         Max.-Flux-Residual
  Residual-Control   Outer-Iter.   Inner-Iter.     Column Row Layer    Maximum-Head-Change  Column Row Layer    Maximum-Flux-Residual          L2-NORM 
          0                 1           2             5    8     1       0.1861732819E-01       5    8    1         0.1014165265E+01      0.2228813576E+01
          0                 2           2             4    7     1      -0.9842362060E-01       5    8    1        -0.5341586677E+01      0.1306311163E+02
          0                 3           2             4    7     1       0.6700812349E-02       5    8    1         0.3737660710E+00      0.9140596849E+00
          0                 4           2             4    7     1      -0.1510156229E-01       5    8    1        -0.8565975018E+00      0.2098059200E+01
          0                 5           2             4    7     1       0.1852338335E-03       4    7    1         0.1079589335E-01      0.2645119986E-01
          0                 6           1             4    7     1       0.2724277071E-05       5    8    1         0.1590795760E-03      0.3900842245E-03

    ------------------------------------------------
       NWT REQUIRED            6 OUTER ITERATIONS 
       AND A TOTAL OF         11 INNER ITERATIONS.
    ------------------------------------------------

 NO OUTPUT CONTROL FOR STRESS PERIOD   32   TIME STEP    6
 
 SOLVING FOR HEAD 
                                                   Max.-Head-Change                         Max.-Flux-Residual
  Residual-Control   Outer-Iter.   Inner-Iter.     Column Row Layer    Maximum-Head-Change  Column Row Layer    Maximum-Flux-Residual          L2-NORM 
          0                 1           2             5    8     1       0.2096187882E-01       5    8    1         0.1142723270E+01      0.2493860977E+01
          0                 2           2             4    7     1      -0.9856117414E-01       5    8    1        -0.5357662847E+01      0.1309377559E+02
          0                 3           2             4    7     1       0.6710179876E-02       5    8    1         0.3748962808E+00      0.9162055334E+00
          0                 4           2             4    7     1      -0.1504521808E-01       5    8    1        -0.8534265193E+00      0.2090265890E+01
          0                 5           2             4    7     1       0.1845472758E-03       4    7    1         0.1075586197E-01      0.2635348215E-01
          0                 6           1             4    7     1       0.2714179615E-05       5    8    1         0.1584937700E-03      0.3886405401E-03

    ------------------------------------------------
       NWT REQUIRED            6 OUTER ITERATIONS 
       AND A TOTAL OF         11 INNER ITERATIONS.
    ------------------------------------------------

 NO OUTPUT CONTROL FOR STRESS PERIOD   32   TIME STEP    7
 
 SOLVING FOR HEAD 
                                                   Max.-Head-Change                         Max.-Flux-Residual
  Residual-Control   Outer-Iter.   Inner-Iter.     Column Row Layer    Maximum-Head-Change  Column Row Layer    Maximum-Flux-Residual          L2-NORM 
          0                 1           2             5    8     1       0.2318524398E-01       5    8    1         0.1264531609E+01      0.2752289260E+01
          0                 2           2             4    7     1      -0.9870123493E-01       5    8    1        -0.5373057388E+01      0.1312368418E+02
          0                 3           2             4    7     1       0.6719700792E-02       5    8    1         0.3759774913E+00      0.9182975609E+00
          0                 4           2             4    7     1      -0.1498899016E-01       5    8    1        -0.8502596986E+00      0.2082485437E+01
          0                 5           2             4    7     1       0.1838948752E-03       4    7    1         0.1071782137E-01      0.2626060340E-01
          0                 6           1             4    7     1       0.2704584439E-05       5    8    1         0.1579368547E-03      0.3872665100E-03

    ------------------------------------------------
       NWT REQUIRED            6 OUTER ITERATIONS 
       AND A TOTAL OF         11 INNER ITERATIONS.
    ------------------------------------------------

 NO OUTPUT CONTROL FOR STRESS PERIOD   32   TIME STEP    8
 
 SOLVING FOR HEAD 
                                                   Max.-Head-Change                         Max.-Flux-Residual
  Residual-Control   Outer-Iter.   Inner-Iter.     Column Row Layer    Maximum-Head-Change  Column Row Layer    Maximum-Flux-Residual          L2-NORM 
          0                 1           2             5    8     1       0.2529558574E-01       5    8    1         0.1380049583E+01      0.3002960739E+01
          0                 2           2             4    7     1      -0.9884353800E-01       5    8    1        -0.5387816702E+01      0.1315286937E+02
          0                 3           2             4    7     1       0.6729408910E-02       5    8    1         0.3773963415E+00      0.9205014892E+00
          0                 4           2             4    7     1      -0.1493287976E-01       5    8    1        -0.8470972341E+00      0.2074718202E+01
          0                 5           2             5    8     1       0.1921195781E-03       5    8    1         0.1151550503E-01      0.2651773737E-01
          0                 6           1             5    8     1       0.2825547128E-05       5    8    1         0.1693093893E-03      0.3908135824E-03

    ------------------------------------------------
       NWT REQUIRED            6 OUTER ITERATIONS 
       AND A TOTAL OF         11 INNER ITERATIONS.
    ------------------------------------------------

 NO OUTPUT CONTROL FOR STRESS PERIOD   32   TIME STEP    9
 
 SOLVING FOR HEAD 
                                                   Max.-Head-Change                         Max.-Flux-Residual
  Residual-Control   Outer-Iter.   Inner-Iter.     Column Row Layer    Maximum-Head-Change  Column Row Layer    Maximum-Flux-Residual          L2-NORM 
          0                 1           2             5    8     1       0.2727877779E-01       5    8    1         0.1490456631E+01      0.3245865676E+01
          0                 2           2             4    7     1      -0.9898777974E-01       5    8    1        -0.5400725460E+01      0.1318084277E+02
          0                 3           2             5    8     1       0.6750496312E-02       5    8    1         0.3824532335E+00      0.9241950362E+00
          0                 4           2             4    7     1      -0.1487688753E-01       5    8    1        -0.8441233523E+00      0.2067040245E+01
          0                 5           2             4    7     1       0.1825045365E-03       4    7    1         0.1063675214E-01      0.2608253606E-01
          0                 6           1             4    7     1       0.2684136483E-05       5    8    1         0.1581999607E-03      0.3970835516E-03

    ------------------------------------------------
       NWT REQUIRED            6 OUTER ITERATIONS 
       AND A TOTAL OF         11 INNER ITERATIONS.
    ------------------------------------------------

 NO OUTPUT CONTROL FOR STRESS PERIOD   32   TIME STEP   10
 
 SOLVING FOR HEAD 
                                                   Max.-Head-Change                         Max.-Flux-Residual
  Residual-Control   Outer-Iter.   Inner-Iter.     Column Row Layer    Maximum-Head-Change  Column Row Layer    Maximum-Flux-Residual          L2-NORM 
          0                 1           2             5    8     1       0.2924919981E-01       5    8    1         0.1598382772E+01      0.3482290627E+01
          0                 2           2             4    7     1      -0.9913370528E-01       5    8    1        -0.5416043455E+01      0.1320938186E+02
          0                 3           2             4    7     1       0.6749181732E-02       5    8    1         0.3790158186E+00      0.9243216446E+00
          0                 4           2             4    7     1      -0.1482102086E-01       5    8    1        -0.8407888973E+00      0.2059227618E+01
          0                 5           2             4    7     1       0.1818565890E-03       4    7    1         0.1059897244E-01      0.2597059514E-01
          0                 6           1             4    7     1       0.2674607173E-05       5    8    1         0.1562191680E-03      0.3830006615E-03

    ------------------------------------------------
       NWT REQUIRED            6 OUTER ITERATIONS 
       AND A TOTAL OF         11 INNER ITERATIONS.
    ------------------------------------------------

 NO OUTPUT CONTROL FOR STRESS PERIOD   32   TIME STEP   11
 
 SOLVING FOR HEAD 
                                                   Max.-Head-Change                         Max.-Flux-Residual
  Residual-Control   Outer-Iter.   Inner-Iter.     Column Row Layer    Maximum-Head-Change  Column Row Layer    Maximum-Flux-Residual          L2-NORM 
          0                 1           2             5    8     1       0.3112022800E-01       5    8    1         0.1700774754E+01      0.3710219152E+01
          0                 2           2             4    7     1      -0.9928110939E-01       5    8    1        -0.5429470695E+01      0.1323672127E+02
          0                 3           2             4    7     1       0.6759211365E-02       5    8    1         0.3799590647E+00      0.9262449366E+00
          0                 4           2             4    7     1      -0.1476523518E-01       5    8    1        -0.8376401901E+00      0.2051498105E+01
          0                 5           2             4    7     1       0.1811523749E-03       4    7    1         0.1055791219E-01      0.2587020325E-01
          0                 6           1             4    7     1       0.2664249952E-05       5    8    1         0.1556166053E-03      0.3815170131E-03

    ------------------------------------------------
       NWT REQUIRED            6 OUTER ITERATIONS 
       AND A TOTAL OF         11 INNER ITERATIONS.
    ------------------------------------------------

 NO OUTPUT CONTROL FOR STRESS PERIOD   32   TIME STEP   12
 
 SOLVING FOR HEAD 
                                                   Max.-Head-Change                         Max.-Flux-Residual
  Residual-Control   Outer-Iter.   Inner-Iter.     Column Row Layer    Maximum-Head-Change  Column Row Layer    Maximum-Flux-Residual          L2-NORM 
          0                 1           2             5    8     1       0.3289863622E-01       5    8    1         0.1798013195E+01      0.3929858753E+01
          0                 2           2             4    7     1      -0.9942976024E-01       5    8    1        -0.5442376378E+01      0.1326343954E+02
          0                 3           2             4    7     1       0.6769334282E-02       5    8    1         0.3808660218E+00      0.9281195842E+00
          0                 4           2             4    7     1      -0.1470958822E-01       5    8    1        -0.8344976029E+00      0.2043785478E+01
          0                 5           2             4    7     1       0.1804907742E-03       4    7    1         0.1051933575E-01      0.2577587526E-01
          0                 6           1             4    7     1       0.2654519796E-05       5    8    1         0.1550503362E-03      0.3801235671E-03

    ------------------------------------------------
       NWT REQUIRED            6 OUTER ITERATIONS 
       AND A TOTAL OF         11 INNER ITERATIONS.
    ------------------------------------------------

 NO OUTPUT CONTROL FOR STRESS PERIOD   32   TIME STEP   13
 
 SOLVING FOR HEAD 
                                                   Max.-Head-Change                         Max.-Flux-Residual
  Residual-Control   Outer-Iter.   Inner-Iter.     Column Row Layer    Maximum-Head-Change  Column Row Layer    Maximum-Flux-Residual          L2-NORM 
          0                 1           2             5    8     1       0.3459010868E-01       5    8    1         0.1890417761E+01      0.4141473200E+01
          0                 2           2             4    7     1      -0.9957943304E-01       5    8    1        -0.5454792473E+01      0.1328956119E+02
          0                 3           2             4    7     1       0.6779526747E-02       5    8    1         0.3817384692E+00      0.9299527300E+00
          0                 4           2             4    7     1      -0.1465405372E-01       5    8    1        -0.8313597800E+00      0.2036086297E+01
          0                 5           2             4    7     1       0.1798141991E-03       4    7    1         0.1047988649E-01      0.2567938945E-01
          0                 6           1             4    7     1       0.2644569530E-05       5    8    1         0.1544709605E-03      0.3786982728E-03

    ------------------------------------------------
       NWT REQUIRED            6 OUTER ITERATIONS 
       AND A TOTAL OF         11 INNER ITERATIONS.
    ------------------------------------------------

 NO OUTPUT CONTROL FOR STRESS PERIOD   32   TIME STEP   14
 
 SOLVING FOR HEAD 
                                                   Max.-Head-Change                         Max.-Flux-Residual
  Residual-Control   Outer-Iter.   Inner-Iter.     Column Row Layer    Maximum-Head-Change  Column Row Layer    Maximum-Flux-Residual          L2-NORM 
          0                 1           2             5    8     1       0.3620059978E-01       5    8    1         0.1978322490E+01      0.4345381546E+01
          0                 2           2             4    7     1      -0.9972995255E-01       5    8    1        -0.5466752860E+01      0.1331511266E+02
          0                 3           2             4    7     1       0.6789785473E-02       5    8    1         0.3825792730E+00      0.9317471894E+00
          0                 4           2             4    7     1      -0.1459862310E-01       5    8    1        -0.8282263634E+00      0.2028399506E+01
          0                 5           2             4    7     1       0.1791307243E-03       4    7    1         0.1044003383E-01      0.2558189612E-01
          0                 6           1             4    7     1       0.2634516768E-05       5    8    1         0.1538854024E-03      0.3772599565E-03

    ------------------------------------------------
       NWT REQUIRED            6 OUTER ITERATIONS 
       AND A TOTAL OF         11 INNER ITERATIONS.
    ------------------------------------------------

 NO OUTPUT CONTROL FOR STRESS PERIOD   32   TIME STEP   15
 
 SOLVING FOR HEAD 
                                                   Max.-Head-Change                         Max.-Flux-Residual
  Residual-Control   Outer-Iter.   Inner-Iter.     Column Row Layer    Maximum-Head-Change  Column Row Layer    Maximum-Flux-Residual          L2-NORM 
          0                 1           2             5    8     1       0.3773518675E-01       5    8    1         0.2062012544E+01      0.4541900607E+01
          0                 2           2             4    7     1      -0.9988113949E-01       5    8    1        -0.5478285579E+01      0.1334011554E+02
          0                 3           2             4    7     1       0.6800080967E-02       5    8    1         0.3833894578E+00      0.9334998401E+00
          0                 4           2             4    7     1      -0.1454330351E-01       5    8    1        -0.8250978734E+00      0.2020726077E+01
          0                 5           2             4    7     1       0.1784731608E-03       4    7    1         0.1040169001E-01      0.2548898075E-01
          0                 6           1             4    7     1       0.2600303281E-05       4    6    1         0.1519307993E-03      0.3732806677E-03

    ------------------------------------------------
       NWT REQUIRED            6 OUTER ITERATIONS 
       AND A TOTAL OF         11 INNER ITERATIONS.
    ------------------------------------------------

 NO OUTPUT CONTROL FOR STRESS PERIOD   32   TIME STEP   16
 
 SOLVING FOR HEAD 
                                                   Max.-Head-Change                         Max.-Flux-Residual
  Residual-Control   Outer-Iter.   Inner-Iter.     Column Row Layer    Maximum-Head-Change  Column Row Layer    Maximum-Flux-Residual          L2-NORM 
          0                 1           2             5    8     1       0.3919870110E-01       5    8    1         0.2141759039E+01      0.4731359882E+01
          0                 2           2             4    7     1      -0.1000327874E+00       5    8    1        -0.5489417266E+01      0.1336459027E+02
          0                 3           2             4    7     1       0.6810381887E-02       5    8    1         0.3841699490E+00      0.9352098242E+00
          0                 4           2             4    7     1      -0.1448807683E-01       5    8    1        -0.8219733956E+00      0.2013063684E+01
          0                 5           2             4    7     1       0.1777922001E-03       4    7    1         0.1036198259E-01      0.2539093647E-01
          0                 6           1             4    7     1       0.2614831193E-05       5    8    1         0.1527380687E-03      0.3744396133E-03

    ------------------------------------------------
       NWT REQUIRED            6 OUTER ITERATIONS 
       AND A TOTAL OF         11 INNER ITERATIONS.
    ------------------------------------------------

 NO OUTPUT CONTROL FOR STRESS PERIOD   32   TIME STEP   17
 
 SOLVING FOR HEAD 
                                                   Max.-Head-Change                         Max.-Flux-Residual
  Residual-Control   Outer-Iter.   Inner-Iter.     Column Row Layer    Maximum-Head-Change  Column Row Layer    Maximum-Flux-Residual          L2-NORM 
          0                 1           2             5    8     1       0.4059547660E-01       5    8    1         0.2217804587E+01      0.4914079049E+01
          0                 2           2             5    7     1      -0.1001911707E+00       5    8    1        -0.5500173135E+01      0.1338856059E+02
          0                 3           2             5    7     1       0.6821206950E-02       5    8    1         0.3849268161E+00      0.9368918155E+00
          0                 4           2             4    7     1      -0.1443300463E-01       5    8    1        -0.8188565173E+00      0.2005421163E+01
          0                 5           2             4    7     1       0.1771213248E-03       4    7    1         0.1032286317E-01      0.2529520234E-01
          0                 6           1             4    7     1       0.2604964378E-05       5    8    1         0.1521627235E-03      0.3730272103E-03

    ------------------------------------------------
       NWT REQUIRED            6 OUTER ITERATIONS 
       AND A TOTAL OF         11 INNER ITERATIONS.
    ------------------------------------------------

 NO OUTPUT CONTROL FOR STRESS PERIOD   32   TIME STEP   18
 
 SOLVING FOR HEAD 
                                                   Max.-Head-Change                         Max.-Flux-Residual
  Residual-Control   Outer-Iter.   Inner-Iter.     Column Row Layer    Maximum-Head-Change  Column Row Layer    Maximum-Flux-Residual          L2-NORM 
          0                 1           2             5    8     1       0.4192994323E-01       5    8    1         0.2290397493E+01      0.5090383141E+01
          0                 2           2             5    7     1      -0.1003661751E+00       5    8    1        -0.5510578018E+01      0.1341204673E+02
          0                 3           2             5    7     1       0.6833132691E-02       5    8    1         0.3856573124E+00      0.9385359877E+00
          0                 4           2             4    7     1      -0.1437800807E-01       5    8    1        -0.8157427692E+00      0.1997787576E+01
          0                 5           2             4    7     1       0.1764513823E-03       4    7    1         0.1028379828E-01      0.2519959476E-01
          0                 6           1             4    7     1       0.2595111677E-05       5    8    1         0.1515881252E-03      0.3716311068E-03

    ------------------------------------------------
       NWT REQUIRED            6 OUTER ITERATIONS 
       AND A TOTAL OF         11 INNER ITERATIONS.
    ------------------------------------------------

 NO OUTPUT CONTROL FOR STRESS PERIOD   32   TIME STEP   19
 
 SOLVING FOR HEAD 
                                                   Max.-Head-Change                         Max.-Flux-Residual
  Residual-Control   Outer-Iter.   Inner-Iter.     Column Row Layer    Maximum-Head-Change  Column Row Layer    Maximum-Flux-Residual          L2-NORM 
          0                 1           2             5    8     1       0.4320564148E-01       5    8    1         0.2359736044E+01      0.5260568268E+01
          0                 2           2             5    7     1      -0.1005384526E+00       5    8    1        -0.5520651267E+01      0.1343506594E+02
          0                 3           2             5    7     1       0.6844864168E-02       5    8    1         0.3863635758E+00      0.9401451755E+00
          0                 4           2             4    7     1      -0.1432312905E-01       5    8    1        -0.8126346536E+00      0.1990168871E+01
          0                 5           2             4    7     1       0.1757992510E-03       4    7    1         0.1024577171E-01      0.2510651102E-01
          0                 6           1             4    7     1       0.2585520422E-05       5    8    1         0.1510286072E-03      0.3702425971E-03

    ------------------------------------------------
       NWT REQUIRED            6 OUTER ITERATIONS 
       AND A TOTAL OF         11 INNER ITERATIONS.
    ------------------------------------------------

 NO OUTPUT CONTROL FOR STRESS PERIOD   32   TIME STEP   20
 
 SOLVING FOR HEAD 
                                                   Max.-Head-Change                         Max.-Flux-Residual
  Residual-Control   Outer-Iter.   Inner-Iter.     Column Row Layer    Maximum-Head-Change  Column Row Layer    Maximum-Flux-Residual          L2-NORM 
          0                 1           2             5    8     1       0.4442627128E-01       5    8    1         0.2426027351E+01      0.5424926537E+01
          0                 2           2             5    7     1      -0.1007080165E+00       5    8    1        -0.5530413116E+01      0.1345763741E+02
          0                 3           2             5    7     1       0.6856376628E-02       5    8    1         0.3870460542E+00      0.9417204531E+00
          0                 4           2             4    7     1      -0.1426831570E-01       5    8    1        -0.8095293722E+00      0.1982558049E+01
          0                 5           2             4    7     1       0.1751315677E-03       4    7    1         0.1020683886E-01      0.2501119572E-01
          0                 6           1             4    7     1       0.2575700429E-05       5    8    1         0.1504556071E-03      0.3688362013E-03

    ------------------------------------------------
       NWT REQUIRED            6 OUTER ITERATIONS 
       AND A TOTAL OF         11 INNER ITERATIONS.
    ------------------------------------------------

 NO OUTPUT CONTROL FOR STRESS PERIOD   32   TIME STEP   21
 
 SOLVING FOR HEAD 
                                                   Max.-Head-Change                         Max.-Flux-Residual
  Residual-Control   Outer-Iter.   Inner-Iter.     Column Row Layer    Maximum-Head-Change  Column Row Layer    Maximum-Flux-Residual          L2-NORM 
          0                 1           2             5    8     1       0.4559526673E-01       5    8    1         0.2489463253E+01      0.5583747879E+01
          0                 2           2             5    7     1      -0.1008749576E+00       5    8    1        -0.5539884657E+01      0.1347977713E+02
          0                 3           2             5    7     1       0.6867770350E-02       5    8    1         0.3877114746E+00      0.9432695697E+00
          0                 4           2             4    7     1      -0.1421365566E-01       5    8    1        -0.8064319689E+00      0.1974967372E+01
          0                 5           2             4    7     1       0.1744657741E-03       4    7    1         0.1016801637E-01      0.2491613746E-01
          0                 6           1             4    7     1       0.2565909001E-05       5    8    1         0.1498840804E-03      0.3674344205E-03

    ------------------------------------------------
       NWT REQUIRED            6 OUTER ITERATIONS 
       AND A TOTAL OF         11 INNER ITERATIONS.
    ------------------------------------------------

 NO OUTPUT CONTROL FOR STRESS PERIOD   32   TIME STEP   22
 
 SOLVING FOR HEAD 
                                                   Max.-Head-Change                         Max.-Flux-Residual
  Residual-Control   Outer-Iter.   Inner-Iter.     Column Row Layer    Maximum-Head-Change  Column Row Layer    Maximum-Flux-Residual          L2-NORM 
          0                 1           2             5    8     1       0.4671539020E-01       5    8    1         0.2550198315E+01      0.5737279084E+01
          0                 2           2             5    7     1      -0.1010392967E+00       5    8    1        -0.5549079439E+01      0.1350150233E+02
          0                 3           2             5    7     1       0.6878952659E-02       5    8    1         0.3883548057E+00      0.9447865678E+00
          0                 4           2             4    7     1      -0.1415906062E-01       5    8    1        -0.8033373977E+00      0.1967384627E+01
          0                 5           2             4    7     1       0.1737844205E-03       4    7    1         0.1012828714E-01      0.2481885017E-01
          0                 6           1             4    7     1       0.2555887828E-05       5    8    1         0.1492992455E-03      0.3659988887E-03

    ------------------------------------------------
       NWT REQUIRED            6 OUTER ITERATIONS 
       AND A TOTAL OF         11 INNER ITERATIONS.
    ------------------------------------------------

 NO OUTPUT CONTROL FOR STRESS PERIOD   32   TIME STEP   23
 
 SOLVING FOR HEAD 
                                                   Max.-Head-Change                         Max.-Flux-Residual
  Residual-Control   Outer-Iter.   Inner-Iter.     Column Row Layer    Maximum-Head-Change  Column Row Layer    Maximum-Flux-Residual          L2-NORM 
          0                 1           2             5    8     1       0.4778990827E-01       5    8    1         0.2608414932E+01      0.5885784291E+01
          0                 2           2             5    7     1      -0.1012010951E+00       5    8    1        -0.5558016656E+01      0.1352282945E+02
          0                 3           2             5    7     1       0.6889979052E-02       5    8    1         0.3889808917E+00      0.9462780137E+00
          0                 4           2             4    7     1      -0.1410459966E-01       5    8    1        -0.8002497349E+00      0.1959819536E+01
          0                 5           2             4    7     1       0.1731292629E-03       4    7    1         0.1009008502E-01      0.2472529094E-01
          0                 6           1             4    7     1       0.2546252326E-05       5    8    1         0.1487366681E-03      0.3646180766E-03

    ------------------------------------------------
       NWT REQUIRED            6 OUTER ITERATIONS 
       AND A TOTAL OF         11 INNER ITERATIONS.
    ------------------------------------------------

 NO OUTPUT CONTROL FOR STRESS PERIOD   32   TIME STEP   24
 
 SOLVING FOR HEAD 
                                                   Max.-Head-Change                         Max.-Flux-Residual
  Residual-Control   Outer-Iter.   Inner-Iter.     Column Row Layer    Maximum-Head-Change  Column Row Layer    Maximum-Flux-Residual          L2-NORM 
          0                 1           2             5    8     1       0.4882115635E-01       5    8    1         0.2664243287E+01      0.6029491007E+01
          0                 2           2             5    7     1      -0.1013604123E+00       5    8    1        -0.5566709325E+01      0.1354377309E+02
          0                 3           2             5    7     1       0.6900836468E-02       5    8    1         0.3895898597E+00      0.9477426188E+00
          0                 4           2             4    7     1      -0.1405023822E-01       5    8    1        -0.7971670939E+00      0.1952267378E+01
          0                 5           2             4    7     1       0.1724753325E-03       4    7    1         0.1005195463E-01      0.2463189362E-01
          0                 6           1             4    7     1       0.2536634747E-05       5    8    1         0.1481750387E-03      0.3632404123E-03

    ------------------------------------------------
       NWT REQUIRED            6 OUTER ITERATIONS 
       AND A TOTAL OF         11 INNER ITERATIONS.
    ------------------------------------------------

 NO OUTPUT CONTROL FOR STRESS PERIOD   32   TIME STEP   25
 
 SOLVING FOR HEAD 
                                                   Max.-Head-Change                         Max.-Flux-Residual
  Residual-Control   Outer-Iter.   Inner-Iter.     Column Row Layer    Maximum-Head-Change  Column Row Layer    Maximum-Flux-Residual          L2-NORM 
          0                 1           2             5    8     1       0.4981186293E-01       5    8    1         0.2717835823E+01      0.6168635475E+01
          0                 2           2             5    7     1      -0.1015172903E+00       5    8    1        -0.5575171738E+01      0.1356434534E+02
          0                 3           2             5    7     1       0.6911493560E-02       5    8    1         0.3901808024E+00      0.9491766803E+00
          0                 4           2             4    7     1      -0.1399594937E-01       5    8    1        -0.7940880073E+00      0.1944724496E+01
          0                 5           2             4    7     1       0.1718141165E-03       4    7    1         0.1001339984E-01      0.2453744927E-01
          0                 6           1             4    7     1       0.2526909968E-05       5    8    1         0.1476070365E-03      0.3618475499E-03

    ------------------------------------------------
       NWT REQUIRED            6 OUTER ITERATIONS 
       AND A TOTAL OF         11 INNER ITERATIONS.
    ------------------------------------------------

 NO OUTPUT CONTROL FOR STRESS PERIOD   32   TIME STEP   26
 
 SOLVING FOR HEAD 
                                                   Max.-Head-Change                         Max.-Flux-Residual
  Residual-Control   Outer-Iter.   Inner-Iter.     Column Row Layer    Maximum-Head-Change  Column Row Layer    Maximum-Flux-Residual          L2-NORM 
          0                 1           2             5    8     1       0.5076428148E-01       5    8    1         0.2769318347E+01      0.6303425535E+01
          0                 2           2             5    7     1      -0.1016718098E+00       5    8    1        -0.5583418383E+01      0.1358456411E+02
          0                 3           2             5    7     1       0.6922032810E-02       5    8    1         0.3907590255E+00      0.9505918836E+00
          0                 4           2             4    7     1      -0.1394179491E-01       5    8    1        -0.7910160298E+00      0.1937199544E+01
          0                 5           2             4    7     1       0.1711463760E-03       4    7    1         0.9974465009E-02      0.2444206737E-01
          0                 6           1             4    7     1       0.2517089640E-05       5    8    1         0.1470333812E-03      0.3604437093E-03

    ------------------------------------------------
       NWT REQUIRED            6 OUTER ITERATIONS 
       AND A TOTAL OF         11 INNER ITERATIONS.
    ------------------------------------------------

 NO OUTPUT CONTROL FOR STRESS PERIOD   32   TIME STEP   27
 
 SOLVING FOR HEAD 
                                                   Max.-Head-Change                         Max.-Flux-Residual
  Residual-Control   Outer-Iter.   Inner-Iter.     Column Row Layer    Maximum-Head-Change  Column Row Layer    Maximum-Flux-Residual          L2-NORM 
          0                 1           2             5    8     1       0.5168051779E-01       5    8    1         0.2818807733E+01      0.6434055195E+01
          0                 2           2             5    7     1      -0.1018239958E+00       5    8    1        -0.5591459040E+01      0.1360443779E+02
          0                 3           2             5    7     1       0.6932387488E-02       5    8    1         0.3913213991E+00      0.9519795612E+00
          0                 4           2             4    7     1      -0.1388772982E-01       5    8    1        -0.7879486492E+00      0.1929686311E+01
          0                 5           2             4    7     1       0.1704960996E-03       4    7    1         0.9936548335E-02      0.2434916818E-01
          0                 6           1             4    7     1       0.2507525828E-05       5    8    1         0.1464745978E-03      0.3590730998E-03

    ------------------------------------------------
       NWT REQUIRED            6 OUTER ITERATIONS 
       AND A TOTAL OF         11 INNER ITERATIONS.
    ------------------------------------------------

 NO OUTPUT CONTROL FOR STRESS PERIOD   32   TIME STEP   28
 
 SOLVING FOR HEAD 
                                                   Max.-Head-Change                         Max.-Flux-Residual
  Residual-Control   Outer-Iter.   Inner-Iter.     Column Row Layer    Maximum-Head-Change  Column Row Layer    Maximum-Flux-Residual          L2-NORM 
          0                 1           2             5    8     1       0.5256252022E-01       5    8    1         0.2866413112E+01      0.6560715282E+01
          0                 2           2             5    7     1      -0.1019739200E+00       5    8    1        -0.5599306053E+01      0.1362398127E+02
          0                 3           2             5    7     1       0.6942605244E-02       5    8    1         0.3918711713E+00      0.9533466003E+00
          0                 4           2             4    7     1      -0.1383376407E-01       5    8    1        -0.7848864753E+00      0.1922186288E+01
          0                 5           2             4    7     1       0.1698388674E-03       4    7    1         0.9898226464E-02      0.2425526910E-01
          0                 6           1             4    7     1       0.2497859522E-05       5    8    1         0.1459097891E-03      0.3576883084E-03

    ------------------------------------------------
       NWT REQUIRED            6 OUTER ITERATIONS 
       AND A TOTAL OF         11 INNER ITERATIONS.
    ------------------------------------------------

 NO OUTPUT CONTROL FOR STRESS PERIOD   32   TIME STEP   29
 
 SOLVING FOR HEAD 
                                                   Max.-Head-Change                         Max.-Flux-Residual
  Residual-Control   Outer-Iter.   Inner-Iter.     Column Row Layer    Maximum-Head-Change  Column Row Layer    Maximum-Flux-Residual          L2-NORM 
          0                 1           2             5    8     1       0.5341239559E-01       5    8    1         0.2912251194E+01      0.6683592615E+01
          0                 2           2             5    7     1      -0.1021216482E+00       5    8    1        -0.5606970615E+01      0.1364320641E+02
          0                 3           2             5    7     1       0.6952656351E-02       5    8    1         0.3924072183E+00      0.9546892277E+00
          0                 4           2             4    7     1      -0.1377987088E-01       5    8    1        -0.7818280316E+00      0.1914695775E+01
          0                 5           2             4    7     1       0.1691661670E-03       4    7    1         0.9859003292E-02      0.2415915620E-01
          0                 6           1             4    7     1       0.2487966159E-05       5    8    1         0.1453316509E-03      0.3562674658E-03

    ------------------------------------------------
       NWT REQUIRED            6 OUTER ITERATIONS 
       AND A TOTAL OF         11 INNER ITERATIONS.
    ------------------------------------------------

 NO OUTPUT CONTROL FOR STRESS PERIOD   32   TIME STEP   30



 STREAM LISTING     PERIOD     32   STEP       30

 LAYER ROW COL. STREAM  RCH.  FLOW INTO     FLOW TO   FLOW OUT OF   OVRLND.     DIRECT     STREAM       STREAM     STREAM     STREAM   STREAMBED  STREAMBED
                SEG.NO.  NO.  STRM. RCH.    AQUIFER    STRM. RCH.    RUNOFF     PRECIP       ET          HEAD       DEPTH      WIDTH   CONDCTNC.   GRADIENT

   1    1    1     1     1    2.8124E+01  2.5914E-01   2.7865E+01  0.000E+00  0.000E+00  0.000E+00  1.09427E+03  1.223E+00  1.364E+01  6.136E-02  1.408E+00
   1    2    2     1     2    2.7865E+01  4.0087E-01   2.7464E+01  0.000E+00  0.000E+00  0.000E+00  1.08928E+03  1.218E+00  1.358E+01  9.503E-02  1.406E+00
   1    3    3     1     3    2.7464E+01  3.4142E-01   2.7123E+01  0.000E+00  0.000E+00  0.000E+00  1.08363E+03  1.213E+00  1.351E+01  8.103E-02  1.404E+00
   1    3    4     1     4    2.7123E+01  3.1402E-01   2.6809E+01  0.000E+00  0.000E+00  0.000E+00  1.07862E+03  1.209E+00  1.344E+01  7.461E-02  1.403E+00
   1    4    5     2     1    2.4809E+01  3.2738E-01   2.4481E+01  0.000E+00  0.000E+00  0.000E+00  1.07313E+03  1.197E+00  1.200E+01  7.800E-02  1.399E+00
   1    5    6     2     2    2.4481E+01  2.5133E-01   2.4230E+01  0.000E+00  0.000E+00  0.000E+00  1.06770E+03  1.189E+00  1.200E+01  6.000E-02  1.396E+00
   1    6    6     2     3    2.4230E+01  2.5089E-01   2.3979E+01  0.000E+00  0.000E+00  0.000E+00  1.06297E+03  1.181E+00  1.200E+01  6.000E-02  1.394E+00
   1    7    6     2     4    2.3979E+01  2.5044E-01   2.3729E+01  0.000E+00  0.000E+00  0.000E+00  1.05825E+03  1.174E+00  1.200E+01  6.000E-02  1.391E+00
   1    8    6     2     5    2.3729E+01  2.5000E-01   2.3479E+01  0.000E+00  0.000E+00  0.000E+00  1.05353E+03  1.167E+00  1.200E+01  6.000E-02  1.389E+00
   1    3    5     3     1    2.0000E+00  2.8252E-01   1.7175E+00  0.000E+00  0.000E+00  0.000E+00  1.07555E+03  1.909E+00  9.636E+00  7.227E-02  1.955E+00
   1    3    6     3     2    1.7175E+00  2.4905E-01   1.4684E+00  0.000E+00  0.000E+00  0.000E+00  1.07264E+03  1.727E+00  8.909E+00  6.682E-02  1.864E+00
   1    3    7     3     3    1.4684E+00  1.9718E-01   1.2712E+00  0.000E+00  0.000E+00  0.000E+00  1.06987E+03  1.555E+00  8.218E+00  5.547E-02  1.777E+00
   1    4    8     3     4    1.2712E+00  2.2567E-01   1.0456E+00  0.000E+00  0.000E+00  0.000E+00  1.06682E+03  1.364E+00  7.455E+00  6.709E-02  1.682E+00
   1    5    8     3     5    1.0456E+00  1.5790E-01   8.8768E-01  0.000E+00  0.000E+00  0.000E+00  1.06362E+03  1.164E+00  6.655E+00  4.991E-02  1.582E+00
   1    6    8     3     6    8.8768E-01  5.5980E-02   8.3170E-01  0.000E+00  0.000E+00  0.000E+00  1.06158E+03  1.036E+00  6.145E+00  1.844E-02  1.518E+00
   1    5   10     4     1    1.0000E+01  9.0919E-02   9.9091E+00  0.000E+00  0.000E+00  0.000E+00  1.07836E+03  6.368E-01  1.000E+01  2.500E-02  1.212E+00
   1    5    9     4     2    9.9091E+00  1.8158E-01   9.7275E+00  0.000E+00  0.000E+00  0.000E+00  1.07154E+03  6.315E-01  1.000E+01  5.000E-02  1.211E+00
   1    6    8     4     3    9.7275E+00  1.2689E-01   9.6006E+00  0.000E+00  0.000E+00  0.000E+00  1.06381E+03  6.256E-01  1.000E+01  3.500E-02  1.209E+00
   1    6    8     5     1    1.0432E+01  2.2686E-01   1.0205E+01  0.000E+00  0.000E+00  0.000E+00  1.05868E+03  6.790E-01  1.542E+01  6.166E-02  1.226E+00
   1    7    7     5     2    1.0205E+01  2.7894E-01   9.9265E+00  0.000E+00  0.000E+00  0.000E+00  1.05417E+03  6.732E-01  1.519E+01  7.594E-02  1.224E+00
   1    8    7     5     3    9.9265E+00  1.9221E-01   9.7343E+00  0.000E+00  0.000E+00  0.000E+00  1.04992E+03  6.676E-01  1.497E+01  5.241E-02  1.223E+00
   1    8    6     5     4    9.7343E+00  1.3577E-01   9.5985E+00  0.000E+00  0.000E+00  0.000E+00  1.04691E+03  6.637E-01  1.482E+01  3.706E-02  1.221E+00
   1    9    6     6     1    9.5985E+00  2.2097E-01   9.3776E+00  0.000E+00  0.000E+00  0.000E+00  1.04341E+03  6.828E-01  1.200E+01  6.000E-02  1.228E+00
   1   10    7     6     2    9.3776E+00  2.2039E-01   9.1572E+00  0.000E+00  0.000E+00  0.000E+00  1.03885E+03  6.732E-01  1.200E+01  6.000E-02  1.224E+00
   1   11    7     6     3    9.1572E+00  2.1981E-01   8.9374E+00  0.000E+00  0.000E+00  0.000E+00  1.03430E+03  6.636E-01  1.200E+01  6.000E-02  1.221E+00
   1   12    7     6     4    8.9374E+00  2.1923E-01   8.7181E+00  0.000E+00  0.000E+00  0.000E+00  1.02974E+03  6.539E-01  1.200E+01  6.000E-02  1.218E+00
   1   13    7     6     5    8.7181E+00 -2.6515E-02   8.7446E+00  0.000E+00  0.000E+00  0.000E+00  1.02656E+03  6.496E-01  1.200E+01  2.400E-01 -3.683E-02
   1   14    9     7     1    1.5000E+02  1.3806E+00   1.4862E+02  0.000E+00  0.000E+00  0.000E+00  1.03987E+03  2.288E+00  5.529E+01  5.593E-01  8.228E-01
   1   13    8     7     2    1.4862E+02  1.9661E+00   1.4665E+02  0.000E+00  0.000E+00  0.000E+00  1.03478E+03  2.279E+00  5.525E+01  6.147E-01  1.066E+00
   1   13    7     7     3    1.4665E+02  1.6858E+00   1.4497E+02  0.000E+00  0.000E+00  0.000E+00  1.02969E+03  2.269E+00  5.521E+01  5.584E-01  1.006E+00
   1   13    6     8     1    1.5371E+02  1.0392E+00   1.5267E+02  0.000E+00  0.000E+00  0.000E+00  1.02471E+03  2.839E+00  4.117E+01  4.195E-01  8.257E-01
   1   13    5     8     2    1.5267E+02  2.9747E-01   1.5238E+02  0.000E+00  0.000E+00  0.000E+00  1.01846E+03  2.835E+00  4.110E+01  4.188E-01  2.367E-01
   1   13    4     8     3    1.5238E+02 -1.9987E+00   1.5437E+02  0.000E+00  0.000E+00  0.000E+00  1.01222E+03  2.840E+00  4.119E+01  4.197E+00 -1.587E-01
   1   13    3     8     4    1.5437E+02 -3.4273E+00   1.5780E+02  0.000E+00  0.000E+00  0.000E+00  1.00598E+03  2.859E+00  4.146E+01  4.225E+00 -2.704E-01
   1   13    2     8     5    1.5780E+02 -2.5377E+00   1.6034E+02  0.000E+00  0.000E+00  0.000E+00  9.99755E+02  2.880E+00  4.175E+01  4.255E+00 -1.988E-01
   1   13    1     8     6    1.6034E+02 -1.9887E+00   1.6233E+02  0.000E+00  0.000E+00  0.000E+00  9.94770E+02  2.895E+00  4.198E+01  2.566E+00 -2.583E-01
   1    8    6     9     1    2.3479E+01  0.0000E+00   2.3479E+01  0.000E+00  0.000E+00  0.000E+00  1.08253E+03  3.782E+00  4.000E+00  0.000E+00  2.261E+00
   1    8    5     9     2    2.3479E+01  0.0000E+00   2.3479E+01  0.000E+00  0.000E+00  0.000E+00  1.08203E+03  3.782E+00  4.000E+00  0.000E+00  2.261E+00





UNSATURATED ZONE PACKAGE VOLUMETRIC BUDGET FOR  TIME STEP    30 STRESS PERIOD   32
  ------------------------------------------------------------------------------



     CUMULATIVE VOLUMES      L**3       RATES FOR THIS TIME STEP      L**3/T
     ------------------                 ------------------------

           IN:                                      IN:
           ---                                      ---
        INFILTRATION =  1117794375.4023          INFILTRATION =          60.8165

          OUT:                                     OUT:
          ----                                     ----
              UZF ET =  1112555359.9538                UZF ET =          60.8175
        UZF RECHARGE =       73224.0000          UZF RECHARGE =       0.0000E+00

            IN - OUT =     5165791.4485              IN - OUT =      -9.8991E-04

          STORAGE:                                 STORAGE:
          --------                                 --------
      STORAGE CHANGE =     5165791.0192        STORAGE CHANGE =      -9.8895E-04

 PERCENT DISCREPANCY IS DIFFERENCE BETWEEN IN-OUT MINUS CHANGE IN STORAGE
 DIVIDED BY THE AVERAGE OF IN AND OUT TIMES 100

 PERCENT DISCREPANCY =           0.00     PERCENT DISCREPANCY =          -0.00






1
  VOLUMETRIC BUDGET FOR AGRICULTURAL FIELDS AT  END OF TIME STEP   30, STRESS PERIOD  32
  ------------------------------------------------------------------------------

     CUMULATIVE VOLUMES      L**3       RATES FOR THIS TIME STEP      L**3/T
     ------------------                 ------------------------

           IN:                                      IN:
           ---                                      ---
           AG WELLS      =   526296832.0000             AG WELLS      =          36.4899
      DIVERSION SEGMENTS =   522378400.0000        DIVERSION SEGMENTS =          23.4787
           GW IRRIGATION =           0.0000             GW IRRIGATION =           0.0000
           SW IRRIGATION =           0.0000             SW IRRIGATION =           0.0000
        SYSTEM LOSSES GW =           0.0000          SYSTEM LOSSES GW =           0.0000
        SYSTEM LOSSES SW =           0.0000          SYSTEM LOSSES SW =           0.0000

                TOTAL IN =  1048675200.0000                  TOTAL IN =          59.9685

          OUT:                                     OUT:
          ----                                     ----
           AG WELLS      =           0.0000             AG WELLS      =           0.0000
      DIVERSION SEGMENTS =           0.0000        DIVERSION SEGMENTS =           0.0000
           GW IRRIGATION =   526296832.0000             GW IRRIGATION =          36.4899
           SW IRRIGATION =   522387904.0000             SW IRRIGATION =          23.4791
        SYSTEM LOSSES GW =           0.0000          SYSTEM LOSSES GW =           0.0000
        SYSTEM LOSSES SW =           0.0000          SYSTEM LOSSES SW =           0.0000

               TOTAL OUT =  1048684736.0000                 TOTAL OUT =          59.9690

                IN - OUT =       -9536.0000                  IN - OUT =      -4.6921E-04

     PERCENT DISCREPANCY =          -0.00         PERCENT DISCREPANCY =          -0.00



1
  VOLUMETRIC BUDGET FOR ENTIRE MODEL AT END OF TIME STEP   30, STRESS PERIOD  32
  ------------------------------------------------------------------------------

     CUMULATIVE VOLUMES      L**3       RATES FOR THIS TIME STEP      L**3/T
     ------------------                 ------------------------

           IN:                                      IN:
           ---                                      ---
             STORAGE     =   745329728.0000               STORAGE     =          34.5045
       CONSTANT HEAD     =           0.0000         CONSTANT HEAD     =           0.0000
     HEAD DEP BOUNDS     =    23521696.0000       HEAD DEP BOUNDS     =           0.2888
      STREAM LEAKAGE     =   962582336.0000        STREAM LEAKAGE     =          12.2965
        UZF RECHARGE     =       73223.9531          UZF RECHARGE     =           0.0000
               GW ET     =           0.0000                 GW ET     =           0.0000
     SURFACE LEAKAGE     =           0.0000       SURFACE LEAKAGE     =           0.0000
           AG WELLS      =           0.0000             AG WELLS      =           0.0000

                TOTAL IN =  1731506944.0000                  TOTAL IN =          47.0898

          OUT:                                     OUT:
          ----                                     ----
             STORAGE     =   352491360.0000               STORAGE     =           0.3343
       CONSTANT HEAD     =           0.0000         CONSTANT HEAD     =           0.0000
     HEAD DEP BOUNDS     =    23501050.0000       HEAD DEP BOUNDS     =           0.2867
      STREAM LEAKAGE     =   829229184.0000        STREAM LEAKAGE     =           9.9789
        UZF RECHARGE     =           0.0000          UZF RECHARGE     =           0.0000
               GW ET     =           0.0000                 GW ET     =           0.0000
     SURFACE LEAKAGE     =           0.0000       SURFACE LEAKAGE     =           0.0000
           AG WELLS      =   526296832.0000             AG WELLS      =          36.4899

               TOTAL OUT =  1731518464.0000                 TOTAL OUT =          47.0898

                IN - OUT =      -11520.0000                  IN - OUT =       1.5259E-05

     PERCENT DISCREPANCY =          -0.00         PERCENT DISCREPANCY =           0.00






         TIME SUMMARY AT END OF TIME STEP   30 IN STRESS PERIOD   32
                    SECONDS     MINUTES      HOURS       DAYS        YEARS
                    -----------------------------------------------------------
   TIME STEP LENGTH  87667.      1461.1      24.352      1.0147     2.77799E-03
 STRESS PERIOD TIME 2.63000E+06  43833.      730.56      30.440     8.33397E-02
         TOTAL TIME 8.16164E+07 1.36027E+06  22671.      944.63      2.5863    
1
1
                            STRESS PERIOD NO.   33, LENGTH =   2630000.    
                            -----------------------------------------------

                              NUMBER OF TIME STEPS =    30

                               MULTIPLIER FOR DELT =     1.000

                            INITIAL TIME STEP SIZE =   87666.66    

 REUSING NON-PARAMETER GHB CELLS FROM LAST STRESS PERIOD

      2 GHB CELLS

 REUSING STREAM SEGMENT DATA FROM LAST STRESS PERIOD



            AREAL INFILTRATION RATE
 READING ON UNIT   19 WITH FORMAT: (FREE)              

            1           2           3           4           5           6           7           8           9          10
 ........................................................................................................................
   1   1.0000E-10  2.0000E-10   0.000       0.000       0.000       0.000       0.000       0.000       0.000       0.000    
   2   2.0000E-10  1.0000E-10  2.0000E-10   0.000       0.000      8.0000E-10  8.0000E-10  5.0000E-10   0.000       0.000    
   3    0.000      5.0000E-10  1.0000E-10  1.0000E-10  8.0000E-10  8.0000E-10  5.0000E-10  5.0000E-10   0.000       0.000    
   4   8.0000E-10  5.0000E-10  1.0000E-10  1.0000E-10  1.0000E-10  1.0000E-10  1.0000E-10  1.0000E-10  2.0000E-10   0.000    
   5   8.0000E-10  5.0000E-10  1.0000E-10  1.0000E-10  1.0000E-10  1.0000E-10  1.0000E-10  1.0000E-10  1.0000E-10  1.0000E-10
   6   8.0000E-10  5.0000E-10  5.0000E-10  2.0000E-10  2.0000E-10  1.0000E-10  1.0000E-10  1.0000E-10  1.0000E-10  5.0000E-10
   7   8.0000E-10  5.0000E-10  5.0000E-10  2.0000E-10  2.0000E-10  1.0000E-10  1.0000E-10  2.0000E-10  2.0000E-10   0.000    
   8    0.000      5.0000E-10  5.0000E-10  2.0000E-10  2.0000E-10  1.0000E-10  1.0000E-10  2.0000E-10  5.0000E-10   0.000    
   9    0.000      5.0000E-10  5.0000E-10  2.0000E-10  2.0000E-10  1.0000E-10  1.0000E-10  2.0000E-10  5.0000E-10   0.000    
  10    0.000      5.0000E-10  5.0000E-10  2.0000E-10  2.0000E-10  1.0000E-10  1.0000E-10  2.0000E-10  5.0000E-10  8.0000E-10
  11    0.000      1.0000E-10  1.0000E-10  1.0000E-10  1.0000E-10  1.0000E-10  1.0000E-10  2.0000E-10  5.0000E-10   0.000    
  12   1.0000E-10  1.0000E-10  1.0000E-10  1.0000E-10  1.0000E-10  1.0000E-10  1.0000E-10  1.0000E-10  2.0000E-10   0.000    
  13   1.0000E-10  1.0000E-10  2.0000E-10  2.0000E-10  2.0000E-10  2.0000E-10  2.0000E-10  1.0000E-10  1.0000E-10   0.000    
  14    0.000      2.0000E-10  5.0000E-10  5.0000E-10  5.0000E-10  5.0000E-10  5.0000E-10  2.0000E-10  1.0000E-10   0.000    
  15    0.000       0.000      8.0000E-10  8.0000E-10  8.0000E-10  8.0000E-10   0.000       0.000       0.000       0.000    

                  ET RATE =  3.250000E-07

 USING ET EXTINCTION DEPTH FROM PREVIOUS STRESS PERIOD. CURRENT PERIOD IS:      33

 USING EXTINCTION WATER CONTENT FROM PREVIOUS STRESS PERIOD. CURRENT PERIOD IS:      33

 USING AIR ENTRY PRESSURE FROM PREVIOUS STRESS PERIOD. CURRENT PERIOD IS:      33

 USING ROOT PRESSURE HEAD FROM PREVIOUS STRESS PERIOD. CURRENT PERIOD IS:      33

 USING ROOT ACTIVITY FROM PREVIOUS STRESS PERIOD. CURRENT PERIOD IS:      33

 PROCESSING AG STRESS PERIOD DATA

 READING AG STRESS PERIOD DATA

 READING IRRIGATION SEGMENT

 READING IRRIGATION WELL

 READING SUPPLEMENTAL WELL

 END PROCESSING AG STRESS PERIOD DATA OPTIONS
 
 SOLVING FOR HEAD 
                                                   Max.-Head-Change                         Max.-Flux-Residual
  Residual-Control   Outer-Iter.   Inner-Iter.     Column Row Layer    Maximum-Head-Change  Column Row Layer    Maximum-Flux-Residual          L2-NORM 
          0                 1           2             5    8     1       0.5423121497E-01       5    8    1         0.2956407749E+01      0.6743556341E+01
          0                 2           2             4    7     1      -0.1464051760E+00       5    8    1        -0.7990327711E+01      0.1944056197E+02
          0                 3           2             4    7     1       0.9969547897E-02       5    8    1         0.5593010790E+00      0.1360805097E+01
          0                 4           2             4    7     1      -0.3966981220E-03       5    8    1        -0.2287387254E-01      0.5565525381E-01
          0                 5           1             4    7     1       0.4891459035E-05       5    8    1         0.2897737925E-03      0.7052359642E-03

    ------------------------------------------------
       NWT REQUIRED            5 OUTER ITERATIONS 
       AND A TOTAL OF          9 INNER ITERATIONS.
    ------------------------------------------------

 NO OUTPUT CONTROL FOR STRESS PERIOD   33   TIME STEP    1
 
 SOLVING FOR HEAD 
                                                   Max.-Head-Change                         Max.-Flux-Residual
  Residual-Control   Outer-Iter.   Inner-Iter.     Column Row Layer    Maximum-Head-Change  Column Row Layer    Maximum-Flux-Residual          L2-NORM 
          0                 1           2             5    8     1       0.5588859583E-01       5    8    1         0.3046930843E+01      0.6995357413E+01
          0                 2           2             5    8     1      -0.6838915279E-02       5    8    1        -0.3819123181E+00      0.8786907351E+00
          0                 3           2             4    7     1      -0.6858540701E-01       4    7    1        -0.3681192792E+01      0.9031588673E+01
          0                 4           2             4    7     1       0.5763371597E-01       4    7    1         0.3179714664E+01      0.7787949145E+01
          0                 5           2             4    7     1      -0.3554063120E-02       5    8    1        -0.2015615485E+00      0.4937235512E+00
          0                 6           2             4    7     1      -0.1341486265E-02       4    7    1        -0.7607293069E-01      0.1863381664E+00
          0                 7           2             4    7     1      -0.1374686538E-02       4    7    1        -0.7795496680E-01      0.1909487305E+00
          0                 8           2             4    7     1      -0.1252608797E-02       4    7    1        -0.7103153892E-01      0.1739898618E+00
          0                 9           2             4    7     1      -0.1292575502E-02       4    7    1        -0.7329721085E-01      0.1795397015E+00
          0                10           2             4    7     1      -0.1346832909E-02       4    7    1        -0.7637319466E-01      0.1870742602E+00
                                                   Max.-Head-Change                         Max.-Flux-Residual
  Residual-Control   Outer-Iter.   Inner-Iter.     Column Row Layer    Maximum-Head-Change  Column Row Layer    Maximum-Flux-Residual          L2-NORM 
          0                11           2             4    7     1      -0.1374661908E-02       4    7    1        -0.7795048683E-01      0.1909377757E+00
          0                12           2             4    7     1      -0.1366323125E-02       4    7    1        -0.7747686594E-01      0.1897776227E+00
          0                13           2             4    7     1      -0.1352043347E-02       4    7    1        -0.7666637753E-01      0.1877923464E+00
          0                14           2             4    7     1      -0.1329408956E-02       4    7    1        -0.7538216903E-01      0.1846467030E+00
          0                15           2             4    7     1      -0.1309223120E-02       4    7    1        -0.7423682692E-01      0.1818412184E+00
          0                16           2             4    7     1      -0.1558664455E-01       4    7    1        -0.8838010000E+00      0.2164860357E+01
          0                17           2             4    7     1       0.1939994203E-03       5    8    1         0.1131725365E-01      0.2772538688E-01
          0                18           1             4    7     1       0.2830723983E-05       5    8    1         0.1651329337E-03      0.4045486382E-03

    ------------------------------------------------
       NWT REQUIRED           18 OUTER ITERATIONS 
       AND A TOTAL OF         35 INNER ITERATIONS.
    ------------------------------------------------

 NO OUTPUT CONTROL FOR STRESS PERIOD   33   TIME STEP    2
 
 SOLVING FOR HEAD 
                                                   Max.-Head-Change                         Max.-Flux-Residual
  Residual-Control   Outer-Iter.   Inner-Iter.     Column Row Layer    Maximum-Head-Change  Column Row Layer    Maximum-Flux-Residual          L2-NORM 
          0                 1           2             5    8     1       0.5471161850E-01       5    8    1         0.2980909440E+01      0.6894846074E+01
          0                 2           2             5    6     1      -0.6850780110E-01       5    8    1        -0.3774383744E+01      0.9160098996E+01
          0                 3           2             5    6     1       0.4962304622E-02       5    8    1         0.2809995718E+00      0.6821369456E+00
          0                 4           2             4    7     1      -0.1567475677E-02       5    8    1        -0.8925240883E-01      0.2182722549E+00
          0                 5           2             4    7     1      -0.2164206263E-01       4    7    1        -0.1227288651E+01      0.3006225182E+01
          0                 6           2             4    7     1       0.2670637635E-03       4    7    1         0.1556434783E-01      0.3812973101E-01
          0                 7           1             4    7     1       0.3925178356E-05       5    8    1         0.2291773142E-03      0.5619487387E-03

    ------------------------------------------------
       NWT REQUIRED            7 OUTER ITERATIONS 
       AND A TOTAL OF         13 INNER ITERATIONS.
    ------------------------------------------------

 NO OUTPUT CONTROL FOR STRESS PERIOD   33   TIME STEP    3
 
 SOLVING FOR HEAD 
                                                   Max.-Head-Change                         Max.-Flux-Residual
  Residual-Control   Outer-Iter.   Inner-Iter.     Column Row Layer    Maximum-Head-Change  Column Row Layer    Maximum-Flux-Residual          L2-NORM 
          0                 1           2             5    8     1       0.5479972661E-01       5    8    1         0.2984793618E+01      0.6931328313E+01
          0                 2           2             5    6     1      -0.7092265803E-01       5    8    1        -0.3906819321E+01      0.9486861552E+01
          0                 3           2             5    6     1       0.4879996576E-02       5    8    1         0.2763267885E+00      0.6710017529E+00
          0                 4           2             4    7     1      -0.1585090869E-02       5    8    1        -0.9024122503E-01      0.2207051847E+00
          0                 5           2             4    7     1      -0.2343237934E-01       4    7    1        -0.1328812503E+01      0.3254907011E+01
          0                 6           2             4    7     1       0.2891560784E-03       4    7    1         0.1685184759E-01      0.4128388037E-01
          0                 7           1             4    7     1       0.4249880460E-05       5    8    1         0.2481352731E-03      0.6084349284E-03

    ------------------------------------------------
       NWT REQUIRED            7 OUTER ITERATIONS 
       AND A TOTAL OF         13 INNER ITERATIONS.
    ------------------------------------------------

 NO OUTPUT CONTROL FOR STRESS PERIOD   33   TIME STEP    4
 
 SOLVING FOR HEAD 
                                                   Max.-Head-Change                         Max.-Flux-Residual
  Residual-Control   Outer-Iter.   Inner-Iter.     Column Row Layer    Maximum-Head-Change  Column Row Layer    Maximum-Flux-Residual          L2-NORM 
          0                 1           2             5    8     1       0.5503383247E-01       5    8    1         0.2996769888E+01      0.6982805183E+01
          0                 2           2             5    6     1      -0.7130549601E-01       5    8    1        -0.3927640434E+01      0.9540601427E+01
          0                 3           2             5    6     1       0.4861781111E-02       5    8    1         0.2752818178E+00      0.6686568268E+00
          0                 4           2             4    7     1      -0.1600667292E-02       5    8    1        -0.9111663553E-01      0.2228577731E+00
          0                 5           2             4    7     1      -0.2360753271E-01       4    7    1        -0.1338742887E+01      0.3279231538E+01
          0                 6           2             4    7     1       0.2913174499E-03       4    7    1         0.1697778206E-01      0.4159239748E-01
          0                 7           1             4    7     1       0.4281647383E-05       5    8    1         0.2499896050E-03      0.6129816261E-03

    ------------------------------------------------
       NWT REQUIRED            7 OUTER ITERATIONS 
       AND A TOTAL OF         13 INNER ITERATIONS.
    ------------------------------------------------

 NO OUTPUT CONTROL FOR STRESS PERIOD   33   TIME STEP    5
 
 SOLVING FOR HEAD 
                                                   Max.-Head-Change                         Max.-Flux-Residual
  Residual-Control   Outer-Iter.   Inner-Iter.     Column Row Layer    Maximum-Head-Change  Column Row Layer    Maximum-Flux-Residual          L2-NORM 
          0                 1           2             5    8     1       0.5528856029E-01       5    8    1         0.3009910803E+01      0.7035724580E+01
          0                 2           2             5    7     1      -0.7145461953E-01       5    8    1        -0.3934276949E+01      0.9559525399E+01
          0                 3           2             5    7     1       0.4865341837E-02       5    8    1         0.2753742043E+00      0.6690707632E+00
          0                 4           2             4    7     1      -0.1557261862E-02       5    8    1        -0.8864777505E-01      0.2168185046E+00
          0                 5           2             4    7     1      -0.2363487867E-01       4    7    1        -0.1340291374E+01      0.3283024634E+01
          0                 6           2             4    7     1       0.2902149934E-03       4    7    1         0.1691349614E-01      0.4143506877E-01
          0                 7           1             4    7     1       0.4265443777E-05       5    8    1         0.2490442557E-03      0.6106655525E-03

    ------------------------------------------------
       NWT REQUIRED            7 OUTER ITERATIONS 
       AND A TOTAL OF         13 INNER ITERATIONS.
    ------------------------------------------------

 NO OUTPUT CONTROL FOR STRESS PERIOD   33   TIME STEP    6
 
 SOLVING FOR HEAD 
                                                   Max.-Head-Change                         Max.-Flux-Residual
  Residual-Control   Outer-Iter.   Inner-Iter.     Column Row Layer    Maximum-Head-Change  Column Row Layer    Maximum-Flux-Residual          L2-NORM 
          0                 1           2             5    8     1       0.5554707572E-01       5    8    1         0.3023284984E+01      0.7088294639E+01
          0                 2           2             5    7     1      -0.7156442713E-01       5    8    1        -0.3938778864E+01      0.9573111887E+01
          0                 3           2             5    7     1       0.4872147631E-02       5    8    1         0.2756519096E+00      0.6699276915E+00
          0                 4           2             4    7     1      -0.1524289544E-02       5    8    1        -0.8677085803E-01      0.2122287362E+00
          0                 5           2             4    7     1      -0.2362051973E-01       4    7    1        -0.1339474880E+01      0.3281024741E+01
          0                 6           2             4    7     1       0.2887369796E-03       4    7    1         0.1682732440E-01      0.4122410899E-01
          0                 7           1             4    7     1       0.4243720753E-05       5    8    1         0.2477765202E-03      0.6075613117E-03

    ------------------------------------------------
       NWT REQUIRED            7 OUTER ITERATIONS 
       AND A TOTAL OF         13 INNER ITERATIONS.
    ------------------------------------------------

 NO OUTPUT CONTROL FOR STRESS PERIOD   33   TIME STEP    7
 
 SOLVING FOR HEAD 
                                                   Max.-Head-Change                         Max.-Flux-Residual
  Residual-Control   Outer-Iter.   Inner-Iter.     Column Row Layer    Maximum-Head-Change  Column Row Layer    Maximum-Flux-Residual          L2-NORM 
          0                 1           2             5    8     1       0.5580655214E-01       5    8    1         0.3036734781E+01      0.7140250017E+01
          0                 2           2             5    7     1      -0.7166859010E-01       5    8    1        -0.3943045631E+01      0.9586014350E+01
          0                 3           2             5    7     1       0.4879236332E-02       5    8    1         0.2759503478E+00      0.6708275344E+00
          0                 4           2             4    7     1      -0.1620214169E-02       5    8    1        -0.9220374897E-01      0.2255427636E+00
          0                 5           2             4    7     1      -0.2347234291E-01       4    7    1        -0.1331069880E+01      0.3260436986E+01
          0                 6           2             4    7     1       0.2869657601E-03       4    7    1         0.1672407243E-01      0.4097114827E-01
          0                 7           1             4    7     1       0.4217688321E-05       5    8    1         0.2462560819E-03      0.6038347667E-03

    ------------------------------------------------
       NWT REQUIRED            7 OUTER ITERATIONS 
       AND A TOTAL OF         13 INNER ITERATIONS.
    ------------------------------------------------

 NO OUTPUT CONTROL FOR STRESS PERIOD   33   TIME STEP    8
 
 SOLVING FOR HEAD 
                                                   Max.-Head-Change                         Max.-Flux-Residual
  Residual-Control   Outer-Iter.   Inner-Iter.     Column Row Layer    Maximum-Head-Change  Column Row Layer    Maximum-Flux-Residual          L2-NORM 
          0                 1           2             5    8     1       0.5606622711E-01       5    8    1         0.3050216924E+01      0.7191534256E+01
          0                 2           2             5    7     1      -0.7177142665E-01       5    8    1        -0.3947307289E+01      0.9598801898E+01
          0                 3           2             5    7     1       0.4886247544E-02       5    8    1         0.2762491434E+00      0.6717211101E+00
          0                 4           2             4    7     1      -0.1588989389E-02       5    8    1        -0.9042639988E-01      0.2211962324E+00
          0                 5           2             4    7     1      -0.2345307505E-01       4    7    1        -0.1329975088E+01      0.3257755399E+01
          0                 6           2             4    7     1       0.2867934432E-03       4    7    1         0.1671400321E-01      0.4094647510E-01
          0                 7           1             4    7     1       0.4190611666E-05       5    8    1         0.2446772614E-03      0.5999712970E-03

    ------------------------------------------------
       NWT REQUIRED            7 OUTER ITERATIONS 
       AND A TOTAL OF         13 INNER ITERATIONS.
    ------------------------------------------------

 NO OUTPUT CONTROL FOR STRESS PERIOD   33   TIME STEP    9
 
 SOLVING FOR HEAD 
                                                   Max.-Head-Change                         Max.-Flux-Residual
  Residual-Control   Outer-Iter.   Inner-Iter.     Column Row Layer    Maximum-Head-Change  Column Row Layer    Maximum-Flux-Residual          L2-NORM 
          0                 1           2             5    8     1       0.5632573095E-01       5    8    1         0.3063709316E+01      0.7242144344E+01
          0                 2           2             5    7     1      -0.7187303067E-01       5    8    1        -0.3951561388E+01      0.9611476465E+01
          0                 3           2             5    7     1       0.4893153442E-02       5    8    1         0.2765462176E+00      0.6726041308E+00
          0                 4           2             4    7     1      -0.2501097081E-01       5    8    1        -0.1418642705E+01      0.3474641790E+01
          0                 5           2             4    7     1       0.3055861999E-03       4    7    1         0.1780933050E-01      0.4363495851E-01
          0                 6           1             4    7     1       0.4494327148E-05       5    8    1         0.2624625436E-03      0.6434916944E-03

    ------------------------------------------------
       NWT REQUIRED            6 OUTER ITERATIONS 
       AND A TOTAL OF         11 INNER ITERATIONS.
    ------------------------------------------------

 NO OUTPUT CONTROL FOR STRESS PERIOD   33   TIME STEP   10
 
 SOLVING FOR HEAD 
                                                   Max.-Head-Change                         Max.-Flux-Residual
  Residual-Control   Outer-Iter.   Inner-Iter.     Column Row Layer    Maximum-Head-Change  Column Row Layer    Maximum-Flux-Residual          L2-NORM 
          0                 1           2             5    8     1       0.5658472920E-01       5    8    1         0.3077192741E+01      0.7292072536E+01
          0                 2           2             5    7     1      -0.7197342913E-01       5    8    1        -0.3955807201E+01      0.9624041280E+01
          0                 3           2             5    7     1       0.4900007191E-02       5    8    1         0.2768443804E+00      0.6734834061E+00
          0                 4           2             4    7     1      -0.2496037208E-01       5    8    1        -0.1415765028E+01      0.3467599248E+01
          0                 5           2             4    7     1       0.3050113941E-03       4    7    1         0.1777580583E-01      0.4355270614E-01
          0                 6           1             4    7     1       0.4485873191E-05       5    8    1         0.2619673555E-03      0.6422788469E-03

    ------------------------------------------------
       NWT REQUIRED            6 OUTER ITERATIONS 
       AND A TOTAL OF         11 INNER ITERATIONS.
    ------------------------------------------------

 NO OUTPUT CONTROL FOR STRESS PERIOD   33   TIME STEP   11
 
 SOLVING FOR HEAD 
                                                   Max.-Head-Change                         Max.-Flux-Residual
  Residual-Control   Outer-Iter.   Inner-Iter.     Column Row Layer    Maximum-Head-Change  Column Row Layer    Maximum-Flux-Residual          L2-NORM 
          0                 1           2             5    8     1       0.5684293097E-01       5    8    1         0.3090649913E+01      0.7341322453E+01
          0                 2           2             5    7     1      -0.7207268476E-01       5    8    1        -0.3960042283E+01      0.9636498145E+01
          0                 3           2             5    7     1       0.4906770288E-02       5    8    1         0.2771410767E+00      0.6743534259E+00
          0                 4           2             4    7     1      -0.2490989015E-01       5    8    1        -0.1412894206E+01      0.3460573258E+01
          0                 5           2             4    7     1       0.3044543907E-03       4    7    1         0.1774331920E-01      0.4347300044E-01
          0                 6           1             4    7     1       0.4453137531E-05       5    8    1         0.2600569685E-03      0.6376052158E-03

    ------------------------------------------------
       NWT REQUIRED            6 OUTER ITERATIONS 
       AND A TOTAL OF         11 INNER ITERATIONS.
    ------------------------------------------------

 NO OUTPUT CONTROL FOR STRESS PERIOD   33   TIME STEP   12
 
 SOLVING FOR HEAD 
                                                   Max.-Head-Change                         Max.-Flux-Residual
  Residual-Control   Outer-Iter.   Inner-Iter.     Column Row Layer    Maximum-Head-Change  Column Row Layer    Maximum-Flux-Residual          L2-NORM 
          0                 1           2             5    8     1       0.5709994191E-01       5    8    1         0.3104057937E+01      0.7389941937E+01
          0                 2           2             5    7     1      -0.7217082506E-01       5    8    1        -0.3964264344E+01      0.9648846992E+01
          0                 3           2             5    7     1       0.4913440328E-02       5    8    1         0.2774359077E+00      0.6752137528E+00
          0                 4           2             4    7     1      -0.2485951231E-01       5    8    1        -0.1410029506E+01      0.3453562048E+01
          0                 5           2             4    7     1       0.3038577646E-03       4    7    1         0.1770852356E-01      0.4338764475E-01
          0                 6           1             4    7     1       0.4468906467E-05       5    8    1         0.2609736680E-03      0.6398439455E-03

    ------------------------------------------------
       NWT REQUIRED            6 OUTER ITERATIONS 
       AND A TOTAL OF         11 INNER ITERATIONS.
    ------------------------------------------------

 NO OUTPUT CONTROL FOR STRESS PERIOD   33   TIME STEP   13
 
 SOLVING FOR HEAD 
                                                   Max.-Head-Change                         Max.-Flux-Residual
  Residual-Control   Outer-Iter.   Inner-Iter.     Column Row Layer    Maximum-Head-Change  Column Row Layer    Maximum-Flux-Residual          L2-NORM 
          0                 1           2             5    8     1       0.5735568069E-01       5    8    1         0.3117411938E+01      0.7437867020E+01
          0                 2           2             5    7     1      -0.7226789413E-01       5    8    1        -0.3968473135E+01      0.9661089549E+01
          0                 3           2             5    7     1       0.4920058810E-02       5    8    1         0.2777310017E+00      0.6760695259E+00
          0                 4           2             4    7     1      -0.2480930754E-01       5    8    1        -0.1407174830E+01      0.3446575179E+01
          0                 5           2             4    7     1       0.3032959979E-03       4    7    1         0.1767576007E-01      0.4330726720E-01
          0                 6           1             4    7     1       0.4460644505E-05       5    8    1         0.2604897888E-03      0.6386581205E-03

    ------------------------------------------------
       NWT REQUIRED            6 OUTER ITERATIONS 
       AND A TOTAL OF         11 INNER ITERATIONS.
    ------------------------------------------------

 NO OUTPUT CONTROL FOR STRESS PERIOD   33   TIME STEP   14
 
 SOLVING FOR HEAD 
                                                   Max.-Head-Change                         Max.-Flux-Residual
  Residual-Control   Outer-Iter.   Inner-Iter.     Column Row Layer    Maximum-Head-Change  Column Row Layer    Maximum-Flux-Residual          L2-NORM 
          0                 1           2             5    8     1       0.5761008754E-01       5    8    1         0.3130707762E+01      0.7485106763E+01
          0                 2           2             5    7     1      -0.7236391924E-01       5    8    1        -0.3972668480E+01      0.9673228727E+01
          0                 3           2             5    7     1       0.4926589096E-02       5    8    1         0.2780242007E+00      0.6769158709E+00
          0                 4           2             4    7     1      -0.2475920710E-01       5    8    1        -0.1404326276E+01      0.3439603104E+01
          0                 5           2             4    7     1       0.3027109740E-03       4    7    1         0.1764164142E-01      0.4322357528E-01
          0                 6           1             4    7     1       0.4452040222E-05       5    8    1         0.2599860015E-03      0.6374242050E-03

    ------------------------------------------------
       NWT REQUIRED            6 OUTER ITERATIONS 
       AND A TOTAL OF         11 INNER ITERATIONS.
    ------------------------------------------------

 NO OUTPUT CONTROL FOR STRESS PERIOD   33   TIME STEP   15
 
 SOLVING FOR HEAD 
                                                   Max.-Head-Change                         Max.-Flux-Residual
  Residual-Control   Outer-Iter.   Inner-Iter.     Column Row Layer    Maximum-Head-Change  Column Row Layer    Maximum-Flux-Residual          L2-NORM 
          0                 1           2             5    8     1       0.5786256324E-01       5    8    1         0.3143911052E+01      0.7531649469E+01
          0                 2           2             5    7     1      -0.7245894056E-01       5    8    1        -0.3976846466E+01      0.9685263499E+01
          0                 3           2             5    7     1       0.4933068138E-02       5    8    1         0.2783171380E+00      0.6777572328E+00
          0                 4           2             4    7     1      -0.2470926290E-01       5    8    1        -0.1401486771E+01      0.3432653017E+01
          0                 5           2             4    7     1       0.3021524203E-03       4    7    1         0.1760906594E-01      0.4314366479E-01
          0                 6           1             4    7     1       0.4419281375E-05       5    8    1         0.2580744517E-03      0.6327479285E-03

    ------------------------------------------------
       NWT REQUIRED            6 OUTER ITERATIONS 
       AND A TOTAL OF         11 INNER ITERATIONS.
    ------------------------------------------------

 NO OUTPUT CONTROL FOR STRESS PERIOD   33   TIME STEP   16
 
 SOLVING FOR HEAD 
                                                   Max.-Head-Change                         Max.-Flux-Residual
  Residual-Control   Outer-Iter.   Inner-Iter.     Column Row Layer    Maximum-Head-Change  Column Row Layer    Maximum-Flux-Residual          L2-NORM 
          0                 1           2             5    8     1       0.5811340137E-01       5    8    1         0.3157037623E+01      0.7577511825E+01
          0                 2           2             5    7     1      -0.7255300830E-01       5    8    1        -0.3981009629E+01      0.9697199622E+01
          0                 3           2             5    7     1       0.4939482247E-02       5    8    1         0.2786090376E+00      0.6785917345E+00
          0                 4           2             4    7     1      -0.2465944075E-01       5    8    1        -0.1398654376E+01      0.3425720167E+01
          0                 5           2             4    7     1       0.3015790091E-03       4    7    1         0.1757562486E-01      0.4306163685E-01
          0                 6           1             4    7     1       0.4435392521E-05       5    8    1         0.2590112017E-03      0.6350407576E-03

    ------------------------------------------------
       NWT REQUIRED            6 OUTER ITERATIONS 
       AND A TOTAL OF         11 INNER ITERATIONS.
    ------------------------------------------------

 NO OUTPUT CONTROL FOR STRESS PERIOD   33   TIME STEP   17
 
 SOLVING FOR HEAD 
                                                   Max.-Head-Change                         Max.-Flux-Residual
  Residual-Control   Outer-Iter.   Inner-Iter.     Column Row Layer    Maximum-Head-Change  Column Row Layer    Maximum-Flux-Residual          L2-NORM 
          0                 1           2             5    8     1       0.5836217968E-01       5    8    1         0.3170063546E+01      0.7622697205E+01
          0                 2           2             5    7     1      -0.7264611155E-01       5    8    1        -0.3985154144E+01      0.9709033608E+01
          0                 3           2             5    7     1       0.4945809291E-02       5    8    1         0.2788984396E+00      0.6794162178E+00
          0                 4           2             4    7     1      -0.2460974403E-01       5    8    1        -0.1395829270E+01      0.3418805010E+01
          0                 5           2             4    7     1       0.3009989635E-03       4    7    1         0.1754179743E-01      0.4297866805E-01
          0                 6           1             4    7     1       0.4426861160E-05       5    8    1         0.2585118089E-03      0.6338114629E-03

    ------------------------------------------------
       NWT REQUIRED            6 OUTER ITERATIONS 
       AND A TOTAL OF         11 INNER ITERATIONS.
    ------------------------------------------------

 NO OUTPUT CONTROL FOR STRESS PERIOD   33   TIME STEP   18
 
 SOLVING FOR HEAD 
                                                   Max.-Head-Change                         Max.-Flux-Residual
  Residual-Control   Outer-Iter.   Inner-Iter.     Column Row Layer    Maximum-Head-Change  Column Row Layer    Maximum-Flux-Residual          L2-NORM 
          0                 1           2             5    8     1       0.5860907944E-01       5    8    1         0.3182998321E+01      0.7667215270E+01
          0                 2           2             5    7     1      -0.7273830565E-01       5    8    1        -0.3989282392E+01      0.9720771469E+01
          0                 3           2             5    7     1       0.4952082984E-02       5    8    1         0.2791871797E+00      0.6802404810E+00
          0                 4           2             4    7     1      -0.2456017832E-01       5    8    1        -0.1393011766E+01      0.3411908321E+01
          0                 5           2             4    7     1       0.3004450771E-03       4    7    1         0.1750949503E-01      0.4289943403E-01
          0                 6           1             4    7     1       0.4418715359E-05       5    8    1         0.2580348655E-03      0.6326423500E-03

    ------------------------------------------------
       NWT REQUIRED            6 OUTER ITERATIONS 
       AND A TOTAL OF         11 INNER ITERATIONS.
    ------------------------------------------------

 NO OUTPUT CONTROL FOR STRESS PERIOD   33   TIME STEP   19
 
 SOLVING FOR HEAD 
                                                   Max.-Head-Change                         Max.-Flux-Residual
  Residual-Control   Outer-Iter.   Inner-Iter.     Column Row Layer    Maximum-Head-Change  Column Row Layer    Maximum-Flux-Residual          L2-NORM 
          0                 1           2             5    8     1       0.5885357606E-01       5    8    1         0.3195812158E+01      0.7711054017E+01
          0                 2           2             5    7     1      -0.7282960869E-01       5    8    1        -0.3993390918E+01      0.9732412637E+01
          0                 3           2             5    7     1       0.4958300276E-02       5    8    1         0.2794747775E+00      0.6810533258E+00
          0                 4           2             4    7     1      -0.2451074766E-01       5    8    1        -0.1390202083E+01      0.3405030643E+01
          0                 5           2             4    7     1       0.2998764934E-03       4    7    1         0.1747633633E-01      0.4281810630E-01
          0                 6           1             4    7     1       0.4410353142E-05       5    8    1         0.2575453607E-03      0.6314433855E-03

    ------------------------------------------------
       NWT REQUIRED            6 OUTER ITERATIONS 
       AND A TOTAL OF         11 INNER ITERATIONS.
    ------------------------------------------------

 NO OUTPUT CONTROL FOR STRESS PERIOD   33   TIME STEP   20
 
 SOLVING FOR HEAD 
                                                   Max.-Head-Change                         Max.-Flux-Residual
  Residual-Control   Outer-Iter.   Inner-Iter.     Column Row Layer    Maximum-Head-Change  Column Row Layer    Maximum-Flux-Residual          L2-NORM 
          0                 1           2             5    8     1       0.5909603232E-01       5    8    1         0.3208524833E+01      0.7754242553E+01
          0                 2           2             5    7     1      -0.7292005505E-01       5    8    1        -0.3997482176E+01      0.9743960234E+01
          0                 3           2             5    7     1       0.4964476344E-02       5    8    1         0.2797621200E+00      0.6818619274E+00
          0                 4           2             4    7     1      -0.2446145689E-01       5    8    1        -0.1387400496E+01      0.3398172648E+01
          0                 5           2             4    7     1       0.2993178167E-03       4    7    1         0.1744375537E-01      0.4273819567E-01
          0                 6           1             4    7     1       0.4402136435E-05       5    8    1         0.2570643778E-03      0.6302640130E-03

    ------------------------------------------------
       NWT REQUIRED            6 OUTER ITERATIONS 
       AND A TOTAL OF         11 INNER ITERATIONS.
    ------------------------------------------------

 NO OUTPUT CONTROL FOR STRESS PERIOD   33   TIME STEP   21
 
 SOLVING FOR HEAD 
                                                   Max.-Head-Change                         Max.-Flux-Residual
  Residual-Control   Outer-Iter.   Inner-Iter.     Column Row Layer    Maximum-Head-Change  Column Row Layer    Maximum-Flux-Residual          L2-NORM 
          0                 1           2             5    8     1       0.5933608987E-01       5    8    1         0.3221116032E+01      0.7796777591E+01
          0                 2           2             5    7     1      -0.7300965078E-01       5    8    1        -0.4001553181E+01      0.9755413053E+01
          0                 3           2             5    7     1       0.4970560269E-02       5    8    1         0.2800461375E+00      0.6826592914E+00
          0                 4           2             4    7     1      -0.2441226195E-01       5    8    1        -0.1384604496E+01      0.3391328208E+01
          0                 5           2             4    7     1       0.2987521397E-03       4    7    1         0.1741076674E-01      0.4265728875E-01
          0                 6           1             4    7     1       0.4393816784E-05       5    8    1         0.2565774280E-03      0.6290708837E-03

    ------------------------------------------------
       NWT REQUIRED            6 OUTER ITERATIONS 
       AND A TOTAL OF         11 INNER ITERATIONS.
    ------------------------------------------------

 NO OUTPUT CONTROL FOR STRESS PERIOD   33   TIME STEP   22
 
 SOLVING FOR HEAD 
                                                   Max.-Head-Change                         Max.-Flux-Residual
  Residual-Control   Outer-Iter.   Inner-Iter.     Column Row Layer    Maximum-Head-Change  Column Row Layer    Maximum-Flux-Residual          L2-NORM 
          0                 1           2             5    8     1       0.5957370309E-01       5    8    1         0.3233582823E+01      0.7838665264E+01
          0                 2           2             5    7     1      -0.7309843622E-01       5    8    1        -0.4005604593E+01      0.9766774779E+01
          0                 3           2             5    7     1       0.4976601848E-02       5    8    1         0.2803294985E+00      0.6834520333E+00
          0                 4           2             4    7     1      -0.2436321116E-01       5    8    1        -0.1381816813E+01      0.3384504020E+01
          0                 5           2             4    7     1       0.2982046032E-03       4    7    1         0.1737883571E-01      0.4257897453E-01
          0                 6           1             4    7     1       0.4385764180E-05       5    8    1         0.2561060580E-03      0.6279171008E-03

    ------------------------------------------------
       NWT REQUIRED            6 OUTER ITERATIONS 
       AND A TOTAL OF         11 INNER ITERATIONS.
    ------------------------------------------------

 NO OUTPUT CONTROL FOR STRESS PERIOD   33   TIME STEP   23
 
 SOLVING FOR HEAD 
                                                   Max.-Head-Change                         Max.-Flux-Residual
  Residual-Control   Outer-Iter.   Inner-Iter.     Column Row Layer    Maximum-Head-Change  Column Row Layer    Maximum-Flux-Residual          L2-NORM 
          0                 1           2             5    8     1       0.5980897797E-01       5    8    1         0.3245930642E+01      0.7879918834E+01
          0                 2           2             5    7     1      -0.7318641825E-01       5    8    1        -0.4009636956E+01      0.9778047008E+01
          0                 3           2             5    7     1       0.4982605831E-02       5    8    1         0.2806124797E+00      0.6842410259E+00
          0                 4           2             4    7     1      -0.2431427524E-01       5    8    1        -0.1379035790E+01      0.3377696022E+01
          0                 5           2             4    7     1       0.2976175759E-03       4    7    1         0.1734460334E-01      0.4249502719E-01
          0                 6           1             4    7     1       0.4377130773E-05       5    8    1         0.2556008299E-03      0.6266782111E-03

    ------------------------------------------------
       NWT REQUIRED            6 OUTER ITERATIONS 
       AND A TOTAL OF         11 INNER ITERATIONS.
    ------------------------------------------------

 NO OUTPUT CONTROL FOR STRESS PERIOD   33   TIME STEP   24
 
 SOLVING FOR HEAD 
                                                   Max.-Head-Change                         Max.-Flux-Residual
  Residual-Control   Outer-Iter.   Inner-Iter.     Column Row Layer    Maximum-Head-Change  Column Row Layer    Maximum-Flux-Residual          L2-NORM 
          0                 1           2             5    8     1       0.6004187831E-01       5    8    1         0.3258157215E+01      0.7920550656E+01
          0                 2           2             5    7     1      -0.7327361921E-01       5    8    1        -0.4013649328E+01      0.9789229984E+01
          0                 3           2             5    7     1       0.4988530961E-02       5    8    1         0.2808926309E+00      0.6850202086E+00
          0                 4           2             4    7     1      -0.2426547360E-01       5    8    1        -0.1376262519E+01      0.3370906897E+01
          0                 5           2             4    7     1       0.2970649304E-03       4    7    1         0.1731237514E-01      0.4241598940E-01
          0                 6           1             4    7     1       0.4369002558E-05       5    8    1         0.2551251362E-03      0.6255111519E-03

    ------------------------------------------------
       NWT REQUIRED            6 OUTER ITERATIONS 
       AND A TOTAL OF         11 INNER ITERATIONS.
    ------------------------------------------------

 NO OUTPUT CONTROL FOR STRESS PERIOD   33   TIME STEP   25
 
 SOLVING FOR HEAD 
                                                   Max.-Head-Change                         Max.-Flux-Residual
  Residual-Control   Outer-Iter.   Inner-Iter.     Column Row Layer    Maximum-Head-Change  Column Row Layer    Maximum-Flux-Residual          L2-NORM 
          0                 1           2             5    8     1       0.6027223627E-01       5    8    1         0.3270252808E+01      0.7960564252E+01
          0                 2           2             5    7     1      -0.7336007550E-01       5    8    1        -0.4017641688E+01      0.9800326658E+01
          0                 3           2             5    7     1       0.4994431047E-02       5    8    1         0.2811728117E+00      0.6857968432E+00
          0                 4           2             4    7     1      -0.2421681678E-01       5    8    1        -0.1373497594E+01      0.3364138109E+01
          0                 5           2             4    7     1       0.2965140702E-03       4    7    1         0.1728025131E-01      0.4233720888E-01
          0                 6           1             4    7     1       0.4360901003E-05       5    8    1         0.2546509968E-03      0.6243508182E-03

    ------------------------------------------------
       NWT REQUIRED            6 OUTER ITERATIONS 
       AND A TOTAL OF         11 INNER ITERATIONS.
    ------------------------------------------------

 NO OUTPUT CONTROL FOR STRESS PERIOD   33   TIME STEP   26
 
 SOLVING FOR HEAD 
                                                   Max.-Head-Change                         Max.-Flux-Residual
  Residual-Control   Outer-Iter.   Inner-Iter.     Column Row Layer    Maximum-Head-Change  Column Row Layer    Maximum-Flux-Residual          L2-NORM 
          0                 1           2             5    8     1       0.6050018363E-01       5    8    1         0.3282224362E+01      0.7999964814E+01
          0                 2           2             5    7     1      -0.7344578188E-01       5    8    1        -0.4021614253E+01      0.9811337049E+01
          0                 3           2             5    7     1       0.5000258682E-02       5    8    1         0.2814504147E+00      0.6865646616E+00
          0                 4           2             4    7     1      -0.2416823993E-01       5    8    1        -0.1370737332E+01      0.3357380635E+01
          0                 5           2             4    7     1       0.2959396528E-03       4    7    1         0.1724675477E-01      0.4225507066E-01
          0                 6           1             4    7     1       0.4352452982E-05       5    8    1         0.2541566664E-03      0.6231574561E-03

    ------------------------------------------------
       NWT REQUIRED            6 OUTER ITERATIONS 
       AND A TOTAL OF         11 INNER ITERATIONS.
    ------------------------------------------------

 NO OUTPUT CONTROL FOR STRESS PERIOD   33   TIME STEP   27
 
 SOLVING FOR HEAD 
                                                   Max.-Head-Change                         Max.-Flux-Residual
  Residual-Control   Outer-Iter.   Inner-Iter.     Column Row Layer    Maximum-Head-Change  Column Row Layer    Maximum-Flux-Residual          L2-NORM 
          0                 1           2             5    8     1       0.6072542091E-01       5    8    1         0.3294055273E+01      0.8038763969E+01
          0                 2           2             4    7     1      -0.7354373873E-01       5    8    1        -0.4025565603E+01      0.9822263021E+01
          0                 3           2             4    7     1       0.5006921533E-02       5    8    1         0.2817272478E+00      0.6873282030E+00
          0                 4           2             4    7     1      -0.2411982436E-01       5    8    1        -0.1367986337E+01      0.3350645766E+01
          0                 5           2             4    7     1       0.2953917674E-03       4    7    1         0.1721480488E-01      0.4217672035E-01
          0                 6           1             4    7     1       0.4344394889E-05       5    8    1         0.2536851432E-03      0.6219825057E-03

    ------------------------------------------------
       NWT REQUIRED            6 OUTER ITERATIONS 
       AND A TOTAL OF         11 INNER ITERATIONS.
    ------------------------------------------------

 NO OUTPUT CONTROL FOR STRESS PERIOD   33   TIME STEP   28
 
 SOLVING FOR HEAD 
                                                   Max.-Head-Change                         Max.-Flux-Residual
  Residual-Control   Outer-Iter.   Inner-Iter.     Column Row Layer    Maximum-Head-Change  Column Row Layer    Maximum-Flux-Residual          L2-NORM 
          0                 1           2             5    8     1       0.6094838220E-01       5    8    1         0.3305769075E+01      0.8076977910E+01
          0                 2           2             4    7     1      -0.7364083989E-01       5    8    1        -0.4029498089E+01      0.9833106703E+01
          0                 3           2             4    7     1       0.5013529289E-02       5    8    1         0.2820022835E+00      0.6880849135E+00
          0                 4           2             4    7     1      -0.2407151461E-01       5    8    1        -0.1365241467E+01      0.3343925800E+01
          0                 5           2             4    7     1       0.2948370061E-03       4    7    1         0.1718245451E-01      0.4209739311E-01
          0                 6           1             4    7     1       0.4336236094E-05       5    8    1         0.2532077390E-03      0.6208139923E-03

    ------------------------------------------------
       NWT REQUIRED            6 OUTER ITERATIONS 
       AND A TOTAL OF         11 INNER ITERATIONS.
    ------------------------------------------------

 NO OUTPUT CONTROL FOR STRESS PERIOD   33   TIME STEP   29
 
 SOLVING FOR HEAD 
                                                   Max.-Head-Change                         Max.-Flux-Residual
  Residual-Control   Outer-Iter.   Inner-Iter.     Column Row Layer    Maximum-Head-Change  Column Row Layer    Maximum-Flux-Residual          L2-NORM 
          0                 1           2             5    8     1       0.6116863235E-01       5    8    1         0.3317341405E+01      0.8114603277E+01
          0                 2           2             4    7     1      -0.7373697416E-01       5    8    1        -0.4033409277E+01      0.9843868080E+01
          0                 3           2             4    7     1       0.5020084169E-02       5    8    1         0.2822765434E+00      0.6888376797E+00
          0                 4           2             4    7     1      -0.2402334105E-01       5    8    1        -0.1362504433E+01      0.3337224941E+01
          0                 5           2             4    7     1       0.2942757426E-03       4    7    1         0.1714972545E-01      0.4201713898E-01
          0                 6           1             4    7     1       0.4327981188E-05       5    8    1         0.2527247732E-03      0.6196323076E-03

    ------------------------------------------------
       NWT REQUIRED            6 OUTER ITERATIONS 
       AND A TOTAL OF         11 INNER ITERATIONS.
    ------------------------------------------------

 NO OUTPUT CONTROL FOR STRESS PERIOD   33   TIME STEP   30



 STREAM LISTING     PERIOD     33   STEP       30

 LAYER ROW COL. STREAM  RCH.  FLOW INTO     FLOW TO   FLOW OUT OF   OVRLND.     DIRECT     STREAM       STREAM     STREAM     STREAM   STREAMBED  STREAMBED
                SEG.NO.  NO.  STRM. RCH.    AQUIFER    STRM. RCH.    RUNOFF     PRECIP       ET          HEAD       DEPTH      WIDTH   CONDCTNC.   GRADIENT

   1    1    1     1     1    2.2874E+01  2.3513E-01   2.2639E+01  0.000E+00  0.000E+00  0.000E+00  1.09419E+03  1.146E+00  1.260E+01  5.672E-02  1.382E+00
   1    2    2     1     2    2.2639E+01  3.6351E-01   2.2276E+01  0.000E+00  0.000E+00  0.000E+00  1.08920E+03  1.141E+00  1.254E+01  8.778E-02  1.380E+00
   1    3    3     1     3    2.2276E+01  3.0939E-01   2.1966E+01  0.000E+00  0.000E+00  0.000E+00  1.08355E+03  1.136E+00  1.247E+01  7.481E-02  1.379E+00
   1    3    4     1     4    2.1966E+01  2.8439E-01   2.1682E+01  0.000E+00  0.000E+00  0.000E+00  1.07854E+03  1.131E+00  1.240E+01  6.885E-02  1.377E+00
   1    4    5     2     1    1.9682E+01  3.1521E-01   1.9367E+01  0.000E+00  0.000E+00  0.000E+00  1.07298E+03  1.041E+00  1.200E+01  7.800E-02  1.347E+00
   1    5    6     2     2    1.9367E+01  2.4193E-01   1.9125E+01  0.000E+00  0.000E+00  0.000E+00  1.06754E+03  1.032E+00  1.200E+01  6.000E-02  1.344E+00
   1    6    6     2     3    1.9125E+01  2.4146E-01   1.8883E+01  0.000E+00  0.000E+00  0.000E+00  1.06282E+03  1.024E+00  1.200E+01  6.000E-02  1.341E+00
   1    7    6     2     4    1.8883E+01  2.4099E-01   1.8642E+01  0.000E+00  0.000E+00  0.000E+00  1.05809E+03  1.017E+00  1.200E+01  6.000E-02  1.339E+00
   1    8    6     2     5    1.8642E+01  2.4052E-01   1.8402E+01  0.000E+00  0.000E+00  0.000E+00  1.05337E+03  1.009E+00  1.200E+01  6.000E-02  1.336E+00
   1    3    5     3     1    2.0000E+00  2.8252E-01   1.7175E+00  0.000E+00  0.000E+00  0.000E+00  1.07555E+03  1.909E+00  9.636E+00  7.227E-02  1.955E+00
   1    3    6     3     2    1.7175E+00  2.4905E-01   1.4684E+00  0.000E+00  0.000E+00  0.000E+00  1.07264E+03  1.727E+00  8.909E+00  6.682E-02  1.864E+00
   1    3    7     3     3    1.4684E+00  1.9718E-01   1.2712E+00  0.000E+00  0.000E+00  0.000E+00  1.06987E+03  1.555E+00  8.218E+00  5.547E-02  1.777E+00
   1    4    8     3     4    1.2712E+00  2.2567E-01   1.0456E+00  0.000E+00  0.000E+00  0.000E+00  1.06682E+03  1.364E+00  7.455E+00  6.709E-02  1.682E+00
   1    5    8     3     5    1.0456E+00  1.5790E-01   8.8768E-01  0.000E+00  0.000E+00  0.000E+00  1.06362E+03  1.164E+00  6.655E+00  4.991E-02  1.582E+00
   1    6    8     3     6    8.8768E-01  5.5980E-02   8.3170E-01  0.000E+00  0.000E+00  0.000E+00  1.06158E+03  1.036E+00  6.145E+00  1.844E-02  1.518E+00
   1    5   10     4     1    1.0000E+01  9.0919E-02   9.9091E+00  0.000E+00  0.000E+00  0.000E+00  1.07836E+03  6.368E-01  1.000E+01  2.500E-02  1.212E+00
   1    5    9     4     2    9.9091E+00  1.8158E-01   9.7275E+00  0.000E+00  0.000E+00  0.000E+00  1.07154E+03  6.315E-01  1.000E+01  5.000E-02  1.211E+00
   1    6    8     4     3    9.7275E+00  1.2689E-01   9.6006E+00  0.000E+00  0.000E+00  0.000E+00  1.06381E+03  6.256E-01  1.000E+01  3.500E-02  1.209E+00
   1    6    8     5     1    1.0432E+01  2.2686E-01   1.0205E+01  0.000E+00  0.000E+00  0.000E+00  1.05868E+03  6.790E-01  1.542E+01  6.166E-02  1.226E+00
   1    7    7     5     2    1.0205E+01  2.7894E-01   9.9265E+00  0.000E+00  0.000E+00  0.000E+00  1.05417E+03  6.732E-01  1.519E+01  7.594E-02  1.224E+00
   1    8    7     5     3    9.9265E+00  1.9221E-01   9.7343E+00  0.000E+00  0.000E+00  0.000E+00  1.04992E+03  6.676E-01  1.497E+01  5.241E-02  1.223E+00
   1    8    6     5     4    9.7343E+00  1.3577E-01   9.5985E+00  0.000E+00  0.000E+00  0.000E+00  1.04691E+03  6.637E-01  1.482E+01  3.706E-02  1.221E+00
   1    9    6     6     1    9.5985E+00  2.2097E-01   9.3776E+00  0.000E+00  0.000E+00  0.000E+00  1.04341E+03  6.828E-01  1.200E+01  6.000E-02  1.228E+00
   1   10    7     6     2    9.3776E+00  2.2039E-01   9.1572E+00  0.000E+00  0.000E+00  0.000E+00  1.03885E+03  6.732E-01  1.200E+01  6.000E-02  1.224E+00
   1   11    7     6     3    9.1572E+00  2.1981E-01   8.9374E+00  0.000E+00  0.000E+00  0.000E+00  1.03430E+03  6.636E-01  1.200E+01  6.000E-02  1.221E+00
   1   12    7     6     4    8.9374E+00  2.1923E-01   8.7181E+00  0.000E+00  0.000E+00  0.000E+00  1.02974E+03  6.539E-01  1.200E+01  6.000E-02  1.218E+00
   1   13    7     6     5    8.7181E+00 -2.3455E-02   8.7416E+00  0.000E+00  0.000E+00  0.000E+00  1.02656E+03  6.495E-01  1.200E+01  2.400E-01 -3.258E-02
   1   14    9     7     1    1.5000E+02  1.3814E+00   1.4862E+02  0.000E+00  0.000E+00  0.000E+00  1.03987E+03  2.288E+00  5.529E+01  5.593E-01  8.233E-01
   1   13    8     7     2    1.4862E+02  1.9700E+00   1.4665E+02  0.000E+00  0.000E+00  0.000E+00  1.03478E+03  2.279E+00  5.525E+01  6.147E-01  1.068E+00
   1   13    7     7     3    1.4665E+02  1.6930E+00   1.4496E+02  0.000E+00  0.000E+00  0.000E+00  1.02969E+03  2.269E+00  5.521E+01  5.584E-01  1.011E+00
   1   13    6     8     1    1.5370E+02  1.0458E+00   1.5265E+02  0.000E+00  0.000E+00  0.000E+00  1.02471E+03  2.839E+00  4.117E+01  4.195E-01  8.310E-01
   1   13    5     8     2    1.5265E+02  3.0324E-01   1.5235E+02  0.000E+00  0.000E+00  0.000E+00  1.01846E+03  2.834E+00  4.110E+01  4.188E-01  2.414E-01
   1   13    4     8     3    1.5235E+02 -1.9791E+00   1.5433E+02  0.000E+00  0.000E+00  0.000E+00  1.01222E+03  2.840E+00  4.118E+01  4.197E+00 -1.572E-01
   1   13    3     8     4    1.5433E+02 -3.4116E+00   1.5774E+02  0.000E+00  0.000E+00  0.000E+00  1.00598E+03  2.859E+00  4.145E+01  4.224E+00 -2.692E-01
   1   13    2     8     5    1.5774E+02 -2.5219E+00   1.6026E+02  0.000E+00  0.000E+00  0.000E+00  9.99754E+02  2.879E+00  4.175E+01  4.254E+00 -1.976E-01
   1   13    1     8     6    1.6026E+02 -1.9698E+00   1.6223E+02  0.000E+00  0.000E+00  0.000E+00  9.94769E+02  2.894E+00  4.197E+01  2.566E+00 -2.559E-01
   1    8    6     9     1    1.8402E+01  0.0000E+00   1.8402E+01  0.000E+00  0.000E+00  0.000E+00  1.08202E+03  3.267E+00  4.000E+00  0.000E+00  2.089E+00
   1    8    5     9     2    1.8402E+01  0.0000E+00   1.8402E+01  0.000E+00  0.000E+00  0.000E+00  1.08152E+03  3.267E+00  4.000E+00  0.000E+00  2.089E+00





UNSATURATED ZONE PACKAGE VOLUMETRIC BUDGET FOR  TIME STEP    30 STRESS PERIOD   33
  ------------------------------------------------------------------------------



     CUMULATIVE VOLUMES      L**3       RATES FOR THIS TIME STEP      L**3/T
     ------------------                 ------------------------

           IN:                                      IN:
           ---                                      ---
        INFILTRATION =  1248491563.0287          INFILTRATION =          49.5665

          OUT:                                     OUT:
          ----                                     ----
              UZF ET =  1242918335.9552                UZF ET =          49.5675
        UZF RECHARGE =       73224.0000          UZF RECHARGE =       0.0000E+00

            IN - OUT =     5500003.0735              IN - OUT =      -9.8419E-04

          STORAGE:                                 STORAGE:
          --------                                 --------
      STORAGE CHANGE =     5500005.5163        STORAGE CHANGE =      -9.8075E-04

 PERCENT DISCREPANCY IS DIFFERENCE BETWEEN IN-OUT MINUS CHANGE IN STORAGE
 DIVIDED BY THE AVERAGE OF IN AND OUT TIMES 100

 PERCENT DISCREPANCY =           0.00     PERCENT DISCREPANCY =          -0.00






1
  VOLUMETRIC BUDGET FOR AGRICULTURAL FIELDS AT  END OF TIME STEP   30, STRESS PERIOD  33
  ------------------------------------------------------------------------------

     CUMULATIVE VOLUMES      L**3       RATES FOR THIS TIME STEP      L**3/T
     ------------------                 ------------------------

           IN:                                      IN:
           ---                                      ---
           AG WELLS      =   605942912.0000             AG WELLS      =          30.3169
      DIVERSION SEGMENTS =   571200128.0000        DIVERSION SEGMENTS =          18.4018
           GW IRRIGATION =           0.0000             GW IRRIGATION =           0.0000
           SW IRRIGATION =           0.0000             SW IRRIGATION =           0.0000
        SYSTEM LOSSES GW =           0.0000          SYSTEM LOSSES GW =           0.0000
        SYSTEM LOSSES SW =           0.0000          SYSTEM LOSSES SW =           0.0000

                TOTAL IN =  1177143040.0000                  TOTAL IN =          48.7187

          OUT:                                     OUT:
          ----                                     ----
           AG WELLS      =           0.0000             AG WELLS      =           0.0000
      DIVERSION SEGMENTS =           0.0000        DIVERSION SEGMENTS =           0.0000
           GW IRRIGATION =   605942912.0000             GW IRRIGATION =          30.3169
           SW IRRIGATION =   571209920.0000             SW IRRIGATION =          18.4022
        SYSTEM LOSSES GW =           0.0000          SYSTEM LOSSES GW =           0.0000
        SYSTEM LOSSES SW =           0.0000          SYSTEM LOSSES SW =           0.0000

               TOTAL OUT =  1177152768.0000                 TOTAL OUT =          48.7190

                IN - OUT =       -9728.0000                  IN - OUT =      -3.7003E-04

     PERCENT DISCREPANCY =          -0.00         PERCENT DISCREPANCY =          -0.00



1
  VOLUMETRIC BUDGET FOR ENTIRE MODEL AT END OF TIME STEP   30, STRESS PERIOD  33
  ------------------------------------------------------------------------------

     CUMULATIVE VOLUMES      L**3       RATES FOR THIS TIME STEP      L**3/T
     ------------------                 ------------------------

           IN:                                      IN:
           ---                                      ---
             STORAGE     =   819787264.0000               STORAGE     =          28.2773
       CONSTANT HEAD     =           0.0000         CONSTANT HEAD     =           0.0000
     HEAD DEP BOUNDS     =    24281334.0000       HEAD DEP BOUNDS     =           0.2889
      STREAM LEAKAGE     =   994516608.0000        STREAM LEAKAGE     =          12.1479
        UZF RECHARGE     =       73223.9531          UZF RECHARGE     =           0.0000
               GW ET     =           0.0000                 GW ET     =           0.0000
     SURFACE LEAKAGE     =           0.0000       SURFACE LEAKAGE     =           0.0000
           AG WELLS      =           0.0000             AG WELLS      =           0.0000

                TOTAL IN =  1838658432.0000                  TOTAL IN =          40.7141

          OUT:                                     OUT:
          ----                                     ----
             STORAGE     =   353116896.0000               STORAGE     =           0.2049
       CONSTANT HEAD     =           0.0000         CONSTANT HEAD     =           0.0000
     HEAD DEP BOUNDS     =    24254580.0000       HEAD DEP BOUNDS     =           0.2864
      STREAM LEAKAGE     =   855355712.0000        STREAM LEAKAGE     =           9.9059
        UZF RECHARGE     =           0.0000          UZF RECHARGE     =           0.0000
               GW ET     =           0.0000                 GW ET     =           0.0000
     SURFACE LEAKAGE     =           0.0000       SURFACE LEAKAGE     =           0.0000
           AG WELLS      =   605942912.0000             AG WELLS      =          30.3169

               TOTAL OUT =  1838670080.0000                 TOTAL OUT =          40.7141

                IN - OUT =      -11648.0000                  IN - OUT =       2.2888E-05

     PERCENT DISCREPANCY =          -0.00         PERCENT DISCREPANCY =           0.00






         TIME SUMMARY AT END OF TIME STEP   30 IN STRESS PERIOD   33
                    SECONDS     MINUTES      HOURS       DAYS        YEARS
                    -----------------------------------------------------------
   TIME STEP LENGTH  87667.      1461.1      24.352      1.0147     2.77799E-03
 STRESS PERIOD TIME 2.63000E+06  43833.      730.56      30.440     8.33397E-02
         TOTAL TIME 8.42463E+07 1.40410E+06  23402.      975.07      2.6696    
1
1
                            STRESS PERIOD NO.   34, LENGTH =   2630000.    
                            -----------------------------------------------

                              NUMBER OF TIME STEPS =    30

                               MULTIPLIER FOR DELT =     1.000

                            INITIAL TIME STEP SIZE =   87666.66    

 REUSING NON-PARAMETER GHB CELLS FROM LAST STRESS PERIOD

      2 GHB CELLS

 REUSING STREAM SEGMENT DATA FROM LAST STRESS PERIOD



            AREAL INFILTRATION RATE
 READING ON UNIT   19 WITH FORMAT: (FREE)              

            1           2           3           4           5           6           7           8           9          10
 ........................................................................................................................
   1   1.0000E-10  2.0000E-10   0.000       0.000       0.000       0.000       0.000       0.000       0.000       0.000    
   2   2.0000E-10  1.0000E-10  2.0000E-10   0.000       0.000      8.0000E-10  8.0000E-10  5.0000E-10   0.000       0.000    
   3    0.000      5.0000E-10  1.0000E-10  1.0000E-10  8.0000E-10  8.0000E-10  5.0000E-10  5.0000E-10   0.000       0.000    
   4   8.0000E-10  5.0000E-10  1.0000E-10  1.0000E-10  1.0000E-10  1.0000E-10  1.0000E-10  1.0000E-10  2.0000E-10   0.000    
   5   8.0000E-10  5.0000E-10  1.0000E-10  1.0000E-10  1.0000E-10  1.0000E-10  1.0000E-10  1.0000E-10  1.0000E-10  1.0000E-10
   6   8.0000E-10  5.0000E-10  5.0000E-10  2.0000E-10  2.0000E-10  1.0000E-10  1.0000E-10  1.0000E-10  1.0000E-10  5.0000E-10
   7   8.0000E-10  5.0000E-10  5.0000E-10  2.0000E-10  2.0000E-10  1.0000E-10  1.0000E-10  2.0000E-10  2.0000E-10   0.000    
   8    0.000      5.0000E-10  5.0000E-10  2.0000E-10  2.0000E-10  1.0000E-10  1.0000E-10  2.0000E-10  5.0000E-10   0.000    
   9    0.000      5.0000E-10  5.0000E-10  2.0000E-10  2.0000E-10  1.0000E-10  1.0000E-10  2.0000E-10  5.0000E-10   0.000    
  10    0.000      5.0000E-10  5.0000E-10  2.0000E-10  2.0000E-10  1.0000E-10  1.0000E-10  2.0000E-10  5.0000E-10  8.0000E-10
  11    0.000      1.0000E-10  1.0000E-10  1.0000E-10  1.0000E-10  1.0000E-10  1.0000E-10  2.0000E-10  5.0000E-10   0.000    
  12   1.0000E-10  1.0000E-10  1.0000E-10  1.0000E-10  1.0000E-10  1.0000E-10  1.0000E-10  1.0000E-10  2.0000E-10   0.000    
  13   1.0000E-10  1.0000E-10  2.0000E-10  2.0000E-10  2.0000E-10  2.0000E-10  2.0000E-10  1.0000E-10  1.0000E-10   0.000    
  14    0.000      2.0000E-10  5.0000E-10  5.0000E-10  5.0000E-10  5.0000E-10  5.0000E-10  2.0000E-10  1.0000E-10   0.000    
  15    0.000       0.000      8.0000E-10  8.0000E-10  8.0000E-10  8.0000E-10   0.000       0.000       0.000       0.000    

                  ET RATE =  7.500000E-08

 USING ET EXTINCTION DEPTH FROM PREVIOUS STRESS PERIOD. CURRENT PERIOD IS:      34

 USING EXTINCTION WATER CONTENT FROM PREVIOUS STRESS PERIOD. CURRENT PERIOD IS:      34

 USING AIR ENTRY PRESSURE FROM PREVIOUS STRESS PERIOD. CURRENT PERIOD IS:      34

 USING ROOT PRESSURE HEAD FROM PREVIOUS STRESS PERIOD. CURRENT PERIOD IS:      34

 USING ROOT ACTIVITY FROM PREVIOUS STRESS PERIOD. CURRENT PERIOD IS:      34

 PROCESSING AG STRESS PERIOD DATA

 READING AG STRESS PERIOD DATA

 READING IRRIGATION SEGMENT

 READING IRRIGATION WELL

 READING SUPPLEMENTAL WELL

 END PROCESSING AG STRESS PERIOD DATA OPTIONS
 
 SOLVING FOR HEAD 
                                                   Max.-Head-Change                         Max.-Flux-Residual
  Residual-Control   Outer-Iter.   Inner-Iter.     Column Row Layer    Maximum-Head-Change  Column Row Layer    Maximum-Flux-Residual          L2-NORM 
          0                 1           2             5    8     1       0.6138630976E-01       5    8    1         0.3328788774E+01      0.8124651329E+01
          0                 2           2             5    8     1      -0.5971168468E-02       5    8    1        -0.3328757181E+00      0.8135156023E+00
          0                 3           2             5    8     1       0.4066148817E-03       5    8    1         0.2330134023E-01      0.5694368804E-01
          0                 4           1             5    8     1      -0.1617958453E-04       5    8    1        -0.9530259968E-03      0.2328844358E-02

    ------------------------------------------------
       NWT REQUIRED            4 OUTER ITERATIONS 
       AND A TOTAL OF          7 INNER ITERATIONS.
    ------------------------------------------------

 NO OUTPUT CONTROL FOR STRESS PERIOD   34   TIME STEP    1
 
 SOLVING FOR HEAD 
                                                   Max.-Head-Change                         Max.-Flux-Residual
  Residual-Control   Outer-Iter.   Inner-Iter.     Column Row Layer    Maximum-Head-Change  Column Row Layer    Maximum-Flux-Residual          L2-NORM 
          0                 1           2             5    8     1       0.5888034930E-01       5    8    1         0.3189978876E+01      0.7897910603E+01
          0                 2           2             5    8     1      -0.5727410227E-02       5    8    1        -0.3189949623E+00      0.7896297377E+00
          0                 3           2             4    7     1      -0.9438334777E-02       4    7    1        -0.5066011312E+00      0.1240876538E+01
          0                 4           2             4    7     1       0.9950642603E-02       4    7    1         0.5489677061E+00      0.1344263377E+01
          0                 5           2             4    7     1      -0.4254184582E-03       4    7    1        -0.2412472326E-01      0.5918066845E-01
          0                 6           1             4   13     1      -0.3438270356E-04       4   13    1        -0.2139241926E-02      0.5978543305E-02

    ------------------------------------------------
       NWT REQUIRED            6 OUTER ITERATIONS 
       AND A TOTAL OF         11 INNER ITERATIONS.
    ------------------------------------------------

 NO OUTPUT CONTROL FOR STRESS PERIOD   34   TIME STEP    2
 
 SOLVING FOR HEAD 
                                                   Max.-Head-Change                         Max.-Flux-Residual
  Residual-Control   Outer-Iter.   Inner-Iter.     Column Row Layer    Maximum-Head-Change  Column Row Layer    Maximum-Flux-Residual          L2-NORM 
          0                 1           2             5    6     1       0.5664688826E-01       5    8    1         0.3060202836E+01      0.7654549038E+01
          0                 2           2             5    7     1      -0.2934905643E-01       5    8    1        -0.1612611323E+01      0.3931654728E+01
          0                 3           2             4    7     1       0.1582220092E-01       5    8    1         0.8763124997E+00      0.2146034218E+01
          0                 4           2             4    7     1       0.9198423019E-02       4    7    1         0.5074644129E+00      0.1242843457E+01
          0                 5           2             4    7     1      -0.3661038299E-03       4    7    1        -0.2076100129E-01      0.5083957677E-01
          0                 6           1             4    7     1       0.4517673272E-05       4    7    1         0.2633142515E-03      0.6458340716E-03

    ------------------------------------------------
       NWT REQUIRED            6 OUTER ITERATIONS 
       AND A TOTAL OF         11 INNER ITERATIONS.
    ------------------------------------------------

 NO OUTPUT CONTROL FOR STRESS PERIOD   34   TIME STEP    3
 
 SOLVING FOR HEAD 
                                                   Max.-Head-Change                         Max.-Flux-Residual
  Residual-Control   Outer-Iter.   Inner-Iter.     Column Row Layer    Maximum-Head-Change  Column Row Layer    Maximum-Flux-Residual          L2-NORM 
          0                 1           2             5    6     1       0.5454388568E-01       5    6    1         0.2944011020E+01      0.7432381785E+01
          0                 2           2             5    6     1      -0.5316979013E-02       5    6    1        -0.2950242594E+00      0.7498961251E+00
          0                 3           2             4    7     1      -0.3448507737E-01       4    7    1        -0.1850777647E+01      0.4551618969E+01
          0                 4           2             4    7     1       0.3623316425E-01       4    7    1         0.1998931163E+01      0.4896202829E+01
          0                 5           2             4    7     1      -0.1441935674E-02       5    8    1        -0.8178606570E-01      0.2003276010E+00
          0                 6           1             4    7     1       0.1779287970E-04       5    8    1         0.1037567156E-02      0.2541510993E-02

    ------------------------------------------------
       NWT REQUIRED            6 OUTER ITERATIONS 
       AND A TOTAL OF         11 INNER ITERATIONS.
    ------------------------------------------------

 NO OUTPUT CONTROL FOR STRESS PERIOD   34   TIME STEP    4
 
 SOLVING FOR HEAD 
                                                   Max.-Head-Change                         Max.-Flux-Residual
  Residual-Control   Outer-Iter.   Inner-Iter.     Column Row Layer    Maximum-Head-Change  Column Row Layer    Maximum-Flux-Residual          L2-NORM 
          0                 1           2             5    6     1       0.5255788344E-01       5    6    1         0.2834710801E+01      0.7221385170E+01
          0                 2           2             5    6     1      -0.5112414007E-02       5    6    1        -0.2834686633E+00      0.7275328589E+00
          0                 3           2             4    7     1      -0.3451052317E-01       4    7    1        -0.1852128132E+01      0.4555972571E+01
          0                 4           2             4    7     1       0.3624627219E-01       4    7    1         0.1999652919E+01      0.4898044331E+01
          0                 5           2             4    7     1      -0.1442471393E-02       5    8    1        -0.8181851298E-01      0.2004048781E+00
          0                 6           1             4    7     1       0.1779949031E-04       5    8    1         0.1037978556E-02      0.2542486553E-02

    ------------------------------------------------
       NWT REQUIRED            6 OUTER ITERATIONS 
       AND A TOTAL OF         11 INNER ITERATIONS.
    ------------------------------------------------

 NO OUTPUT CONTROL FOR STRESS PERIOD   34   TIME STEP    5
 
 SOLVING FOR HEAD 
                                                   Max.-Head-Change                         Max.-Flux-Residual
  Residual-Control   Outer-Iter.   Inner-Iter.     Column Row Layer    Maximum-Head-Change  Column Row Layer    Maximum-Flux-Residual          L2-NORM 
          0                 1           2             5    7     1       0.5085366917E-01       5    6    1         0.2731501114E+01      0.7021351555E+01
          0                 2           2             5    7     1      -0.4946659966E-02       5    6    1        -0.2731478767E+00      0.7076785151E+00
          0                 3           2             4    7     1      -0.3451206392E-01       4    7    1        -0.1852196947E+01      0.4557107637E+01
          0                 4           2             4    7     1       0.3624637454E-01       4    7    1         0.1999657427E+01      0.4898123245E+01
          0                 5           2             4    7     1      -0.1442472662E-02       5    8    1        -0.8182047693E-01      0.2004077048E+00
          0                 6           1             4    7     1       0.1779950588E-04       5    8    1         0.1038003239E-02      0.2542525728E-02

    ------------------------------------------------
       NWT REQUIRED            6 OUTER ITERATIONS 
       AND A TOTAL OF         11 INNER ITERATIONS.
    ------------------------------------------------

 NO OUTPUT CONTROL FOR STRESS PERIOD   34   TIME STEP    6
 
 SOLVING FOR HEAD 
                                                   Max.-Head-Change                         Max.-Flux-Residual
  Residual-Control   Outer-Iter.   Inner-Iter.     Column Row Layer    Maximum-Head-Change  Column Row Layer    Maximum-Flux-Residual          L2-NORM 
          0                 1           2             5    7     1       0.4984216877E-01       5    7    1         0.2642909147E+01      0.6831477738E+01
          0                 2           2             5    7     1      -0.4848272337E-02       5    7    1        -0.2642901530E+00      0.6888410642E+00
          0                 3           2             4    7     1      -0.3451382711E-01       4    7    1        -0.1852278899E+01      0.4558198847E+01
          0                 4           2             4    7     1       0.3624648209E-01       4    7    1         0.1999662458E+01      0.4898198136E+01
          0                 5           2             4    7     1      -0.1442471336E-02       5    8    1        -0.8182213905E-01      0.2004099635E+00
          0                 6           1             4    7     1       0.1779948953E-04       5    8    1         0.1038024129E-02      0.2542548488E-02

    ------------------------------------------------
       NWT REQUIRED            6 OUTER ITERATIONS 
       AND A TOTAL OF         11 INNER ITERATIONS.
    ------------------------------------------------

 NO OUTPUT CONTROL FOR STRESS PERIOD   34   TIME STEP    7
 
 SOLVING FOR HEAD 
                                                   Max.-Head-Change                         Max.-Flux-Residual
  Residual-Control   Outer-Iter.   Inner-Iter.     Column Row Layer    Maximum-Head-Change  Column Row Layer    Maximum-Flux-Residual          L2-NORM 
          0                 1           2             5    7     1       0.4884935435E-01       5    7    1         0.2590349629E+01      0.6651059330E+01
          0                 2           2             5    7     1      -0.4751701866E-02       5    7    1        -0.2590344251E+00      0.6709494118E+00
          0                 3           2             4    7     1      -0.3451580089E-01       4    7    1        -0.1852373281E+01      0.4559249899E+01
          0                 4           2             4    7     1       0.3624660867E-01       5    8    1         0.1999694623E+01      0.4898271167E+01
          0                 5           2             4    7     1      -0.1442473570E-02       5    8    1        -0.8182385993E-01      0.2004125413E+00
          0                 6           1             4    7     1       0.1779951720E-04       5    8    1         0.1038045747E-02      0.2542582791E-02

    ------------------------------------------------
       NWT REQUIRED            6 OUTER ITERATIONS 
       AND A TOTAL OF         11 INNER ITERATIONS.
    ------------------------------------------------

 NO OUTPUT CONTROL FOR STRESS PERIOD   34   TIME STEP    8
 
 SOLVING FOR HEAD 
                                                   Max.-Head-Change                         Max.-Flux-Residual
  Residual-Control   Outer-Iter.   Inner-Iter.     Column Row Layer    Maximum-Head-Change  Column Row Layer    Maximum-Flux-Residual          L2-NORM 
          0                 1           2             5    7     1       0.4787556267E-01       5    7    1         0.2538742623E+01      0.6479440562E+01
          0                 2           2             5    7     1      -0.4656981366E-02       5    7    1        -0.2538739196E+00      0.6539343482E+00
          0                 3           2             4    7     1      -0.3451795959E-01       5    8    1        -0.1853000446E+01      0.4560261826E+01
          0                 4           2             4    7     1       0.3624673542E-01       5    8    1         0.1999737690E+01      0.4898340081E+01
          0                 5           2             4    7     1      -0.1442470204E-02       5    8    1        -0.8182513032E-01      0.2004141739E+00
          0                 6           1             4    7     1       0.1779947541E-04       5    8    1         0.1038061684E-02      0.2542609208E-02

    ------------------------------------------------
       NWT REQUIRED            6 OUTER ITERATIONS 
       AND A TOTAL OF         11 INNER ITERATIONS.
    ------------------------------------------------

 NO OUTPUT CONTROL FOR STRESS PERIOD   34   TIME STEP    9
 
 SOLVING FOR HEAD 
                                                   Max.-Head-Change                         Max.-Flux-Residual
  Residual-Control   Outer-Iter.   Inner-Iter.     Column Row Layer    Maximum-Head-Change  Column Row Layer    Maximum-Flux-Residual          L2-NORM 
          0                 1           2             4    7     1       0.4748526050E-01       5    7    1         0.2488138256E+01      0.6316019516E+01
          0                 2           2             4    7     1      -0.4619025304E-02       5    7    1        -0.2488136524E+00      0.6377475746E+00
          0                 3           2             4    7     1      -0.3452029449E-01       5    8    1        -0.1853595815E+01      0.4561237640E+01
          0                 4           2             4    7     1       0.3624688496E-01       5    8    1         0.1999778989E+01      0.4898408215E+01
          0                 5           2             4    7     1      -0.1442476155E-02       5    8    1        -0.8182680616E-01      0.2004169471E+00
          0                 6           1             4    7     1       0.1779954923E-04       5    8    1         0.1038082759E-02      0.2542637348E-02

    ------------------------------------------------
       NWT REQUIRED            6 OUTER ITERATIONS 
       AND A TOTAL OF         11 INNER ITERATIONS.
    ------------------------------------------------

 NO OUTPUT CONTROL FOR STRESS PERIOD   34   TIME STEP   10
 
 SOLVING FOR HEAD 
                                                   Max.-Head-Change                         Max.-Flux-Residual
  Residual-Control   Outer-Iter.   Inner-Iter.     Column Row Layer    Maximum-Head-Change  Column Row Layer    Maximum-Flux-Residual          L2-NORM 
          0                 1           2             4    7     1       0.4711793362E-01       4    7    1         0.2467233945E+01      0.6160251628E+01
          0                 2           2             4    7     1      -0.4583297206E-02       4    7    1        -0.2467239058E+00      0.6223227181E+00
          0                 3           2             4    7     1      -0.3452278150E-01       5    8    1        -0.1854157536E+01      0.4562178112E+01
          0                 4           2             4    7     1       0.3624703496E-01       5    8    1         0.1999817513E+01      0.4898472790E+01
          0                 5           2             4    7     1      -0.1442476518E-02       5    8    1        -0.8182805138E-01      0.2004187926E+00
          0                 6           1             4    7     1       0.1779955349E-04       5    8    1         0.1038098391E-02      0.2542655304E-02

    ------------------------------------------------
       NWT REQUIRED            6 OUTER ITERATIONS 
       AND A TOTAL OF         11 INNER ITERATIONS.
    ------------------------------------------------

 NO OUTPUT CONTROL FOR STRESS PERIOD   34   TIME STEP   11
 
 SOLVING FOR HEAD 
                                                   Max.-Head-Change                         Max.-Flux-Residual
  Residual-Control   Outer-Iter.   Inner-Iter.     Column Row Layer    Maximum-Head-Change  Column Row Layer    Maximum-Flux-Residual          L2-NORM 
          0                 1           2             4    7     1       0.4672953671E-01       4    7    1         0.2448137693E+01      0.6011621313E+01
          0                 2           2             4    7     1      -0.4545519261E-02       4    7    1        -0.2448144462E+00      0.6076118368E+00
          0                 3           2             4    7     1      -0.3452541010E-01       5    8    1        -0.1854687975E+01      0.4563085382E+01
          0                 4           2             4    7     1       0.3624719562E-01       5    8    1         0.1999854021E+01      0.4898535410E+01
          0                 5           2             4    7     1      -0.1442480109E-02       5    8    1        -0.8182937390E-01      0.2004209540E+00
          0                 6           1             4    7     1       0.1779959785E-04       5    8    1         0.1038115007E-02      0.2542685619E-02

    ------------------------------------------------
       NWT REQUIRED            6 OUTER ITERATIONS 
       AND A TOTAL OF         11 INNER ITERATIONS.
    ------------------------------------------------

 NO OUTPUT CONTROL FOR STRESS PERIOD   34   TIME STEP   12
 
 SOLVING FOR HEAD 
                                                   Max.-Head-Change                         Max.-Flux-Residual
  Residual-Control   Outer-Iter.   Inner-Iter.     Column Row Layer    Maximum-Head-Change  Column Row Layer    Maximum-Flux-Residual          L2-NORM 
          0                 1           2             4    7     1       0.4632250602E-01       4    7    1         0.2427963546E+01      0.5869664963E+01
          0                 2           2             4    7     1      -0.4505928477E-02       4    7    1        -0.2427971783E+00      0.5935688361E+00
          0                 3           2             4    7     1      -0.3452816388E-01       5    8    1        -0.1855189313E+01      0.4563960943E+01
          0                 4           2             4    7     1       0.3624736314E-01       5    8    1         0.1999888506E+01      0.4898595793E+01
          0                 5           2             4    7     1      -0.1442483972E-02       5    8    1        -0.8183061438E-01      0.2004230107E+00
          0                 6           1             4    7     1       0.1779964545E-04       5    8    1         0.1038130599E-02      0.2542709879E-02

    ------------------------------------------------
       NWT REQUIRED            6 OUTER ITERATIONS 
       AND A TOTAL OF         11 INNER ITERATIONS.
    ------------------------------------------------

 NO OUTPUT CONTROL FOR STRESS PERIOD   34   TIME STEP   13
 
 SOLVING FOR HEAD 
                                                   Max.-Head-Change                         Max.-Flux-Residual
  Residual-Control   Outer-Iter.   Inner-Iter.     Column Row Layer    Maximum-Head-Change  Column Row Layer    Maximum-Flux-Residual          L2-NORM 
          0                 1           2             4    7     1       0.4589872039E-01       4    7    1         0.2406815968E+01      0.5733941740E+01
          0                 2           2             4    7     1      -0.4464707635E-02       4    7    1        -0.2406825503E+00      0.5801496500E+00
          0                 3           2             4    7     1      -0.3453103238E-01       5    8    1        -0.1855663627E+01      0.4564806401E+01
          0                 4           2             4    7     1       0.3624753908E-01       5    8    1         0.1999921232E+01      0.4898654359E+01
          0                 5           2             4    7     1      -0.1442488171E-02       5    8    1        -0.8183178359E-01      0.2004250134E+00
          0                 6           1             4    7     1       0.1779969721E-04       5    8    1         0.1038145279E-02      0.2542732128E-02

    ------------------------------------------------
       NWT REQUIRED            6 OUTER ITERATIONS 
       AND A TOTAL OF         11 INNER ITERATIONS.
    ------------------------------------------------

 NO OUTPUT CONTROL FOR STRESS PERIOD   34   TIME STEP   14
 
 SOLVING FOR HEAD 
                                                   Max.-Head-Change                         Max.-Flux-Residual
  Residual-Control   Outer-Iter.   Inner-Iter.     Column Row Layer    Maximum-Head-Change  Column Row Layer    Maximum-Flux-Residual          L2-NORM 
          0                 1           2             4    7     1       0.4546007072E-01       4    7    1         0.2384799659E+01      0.5604064925E+01
          0                 2           2             4    7     1      -0.4422040692E-02       4    7    1        -0.2384810332E+00      0.5673156762E+00
          0                 3           2             4    7     1      -0.3453399622E-01       5    8    1        -0.1856112257E+01      0.4565622413E+01
          0                 4           2             4    7     1       0.3624771290E-01       5    8    1         0.1999951776E+01      0.4898709877E+01
          0                 5           2             4    7     1      -0.1442489482E-02       5    8    1        -0.8183270517E-01      0.2004264873E+00
          0                 6           1             4    7     1       0.1779971345E-04       5    8    1         0.1038156856E-02      0.2542759408E-02

    ------------------------------------------------
       NWT REQUIRED            6 OUTER ITERATIONS 
       AND A TOTAL OF         11 INNER ITERATIONS.
    ------------------------------------------------

 NO OUTPUT CONTROL FOR STRESS PERIOD   34   TIME STEP   15
 
 SOLVING FOR HEAD 
                                                   Max.-Head-Change                         Max.-Flux-Residual
  Residual-Control   Outer-Iter.   Inner-Iter.     Column Row Layer    Maximum-Head-Change  Column Row Layer    Maximum-Flux-Residual          L2-NORM 
          0                 1           2             4    7     1       0.4500818565E-01       4    7    1         0.2362005372E+01      0.5479659651E+01
          0                 2           2             4    7     1      -0.4378086088E-02       4    7    1        -0.2362017039E+00      0.5550291380E+00
          0                 3           2             4    7     1      -0.3453705330E-01       5    8    1        -0.1856537522E+01      0.4566411518E+01
          0                 4           2             4    7     1       0.3624789609E-01       5    8    1         0.1999980933E+01      0.4898764096E+01
          0                 5           2             4    7     1      -0.1442491167E-02       5    8    1        -0.8183357064E-01      0.2004279129E+00
          0                 6           1             4    7     1       0.1779973417E-04       5    8    1         0.1038167714E-02      0.2542774136E-02

    ------------------------------------------------
       NWT REQUIRED            6 OUTER ITERATIONS 
       AND A TOTAL OF         11 INNER ITERATIONS.
    ------------------------------------------------

 NO OUTPUT CONTROL FOR STRESS PERIOD   34   TIME STEP   16
 
 SOLVING FOR HEAD 
                                                   Max.-Head-Change                         Max.-Flux-Residual
  Residual-Control   Outer-Iter.   Inner-Iter.     Column Row Layer    Maximum-Head-Change  Column Row Layer    Maximum-Flux-Residual          L2-NORM 
          0                 1           2             4    7     1       0.4454485164E-01       4    7    1         0.2338532124E+01      0.5360401748E+01
          0                 2           2             4    7     1      -0.4333017617E-02       4    7    1        -0.2338544653E+00      0.5432580319E+00
          0                 3           2             4    7     1      -0.3454018270E-01       5    8    1        -0.1856940317E+01      0.4567173562E+01
          0                 4           2             4    7     1       0.3624807872E-01       5    8    1         0.2000008290E+01      0.4898815833E+01
          0                 5           2             4    7     1      -0.1442492829E-02       5    8    1        -0.8183436301E-01      0.2004292384E+00
          0                 6           1             4    7     1       0.1779975489E-04       5    8    1         0.1038177638E-02      0.2542788311E-02

    ------------------------------------------------
       NWT REQUIRED            6 OUTER ITERATIONS 
       AND A TOTAL OF         11 INNER ITERATIONS.
    ------------------------------------------------

 NO OUTPUT CONTROL FOR STRESS PERIOD   34   TIME STEP   17
 
 SOLVING FOR HEAD 
                                                   Max.-Head-Change                         Max.-Flux-Residual
  Residual-Control   Outer-Iter.   Inner-Iter.     Column Row Layer    Maximum-Head-Change  Column Row Layer    Maximum-Flux-Residual          L2-NORM 
          0                 1           2             4    7     1       0.4407133210E-01       4    7    1         0.2314450676E+01      0.5245958994E+01
          0                 2           2             4    7     1      -0.4286958191E-02       4    7    1        -0.2314463947E+00      0.5319687708E+00
          0                 3           2             4    7     1      -0.3454338481E-01       5    8    1        -0.1857322716E+01      0.4567911124E+01
          0                 4           2             4    7     1       0.3624827531E-01       5    8    1         0.2000034785E+01      0.4898867201E+01
          0                 5           2             4    7     1      -0.1442500653E-02       5    8    1        -0.8183543854E-01      0.2004313250E+00
          0                 6           1             4    7     1       0.1779985145E-04       5    8    1         0.1038191178E-02      0.2542817798E-02

    ------------------------------------------------
       NWT REQUIRED            6 OUTER ITERATIONS 
       AND A TOTAL OF         11 INNER ITERATIONS.
    ------------------------------------------------

 NO OUTPUT CONTROL FOR STRESS PERIOD   34   TIME STEP   18
 
 SOLVING FOR HEAD 
                                                   Max.-Head-Change                         Max.-Flux-Residual
  Residual-Control   Outer-Iter.   Inner-Iter.     Column Row Layer    Maximum-Head-Change  Column Row Layer    Maximum-Flux-Residual          L2-NORM 
          0                 1           2             4    7     1       0.4358919731E-01       4    7    1         0.2289848399E+01      0.5136060032E+01
          0                 2           2             4    7     1      -0.4240060572E-02       4    7    1        -0.2289862300E+00      0.5211341245E+00
          0                 3           2             4    7     1      -0.3454664459E-01       5    8    1        -0.1857685683E+01      0.4568624668E+01
          0                 4           2             4    7     1       0.3624847197E-01       5    8    1         0.2000059771E+01      0.4898916476E+01
          0                 5           2             4    7     1      -0.1442505677E-02       5    8    1        -0.8183629383E-01      0.2004329185E+00
          0                 6           1             4    7     1       0.1779991362E-04       5    8    1         0.1038201920E-02      0.2542834573E-02

    ------------------------------------------------
       NWT REQUIRED            6 OUTER ITERATIONS 
       AND A TOTAL OF         11 INNER ITERATIONS.
    ------------------------------------------------

 NO OUTPUT CONTROL FOR STRESS PERIOD   34   TIME STEP   19
 
 SOLVING FOR HEAD 
                                                   Max.-Head-Change                         Max.-Flux-Residual
  Residual-Control   Outer-Iter.   Inner-Iter.     Column Row Layer    Maximum-Head-Change  Column Row Layer    Maximum-Flux-Residual          L2-NORM 
          0                 1           2             4    7     1       0.4309991367E-01       4    7    1         0.2264806710E+01      0.5030437099E+01
          0                 2           2             4    7     1      -0.4192467416E-02       4    7    1        -0.2264821143E+00      0.5107277050E+00
          0                 3           2             4    7     1      -0.3454994774E-01       5    8    1        -0.1858030260E+01      0.4569314803E+01
          0                 4           2             4    7     1       0.3624866353E-01       5    8    1         0.2000083080E+01      0.4898963162E+01
          0                 5           2             4    7     1      -0.1442507695E-02       5    8    1        -0.8183692205E-01      0.2004340621E+00
          0                 6           1             4    7     1       0.1779993838E-04       5    8    1         0.1038209789E-02      0.2542846755E-02

    ------------------------------------------------
       NWT REQUIRED            6 OUTER ITERATIONS 
       AND A TOTAL OF         11 INNER ITERATIONS.
    ------------------------------------------------

 NO OUTPUT CONTROL FOR STRESS PERIOD   34   TIME STEP   20
 
 SOLVING FOR HEAD 
                                                   Max.-Head-Change                         Max.-Flux-Residual
  Residual-Control   Outer-Iter.   Inner-Iter.     Column Row Layer    Maximum-Head-Change  Column Row Layer    Maximum-Flux-Residual          L2-NORM 
          0                 1           2             4    7     1       0.4260443764E-01       4    7    1         0.2239379773E+01      0.4928829838E+01
          0                 2           2             4    7     1      -0.4144271772E-02       4    7    1        -0.2239394646E+00      0.5007235739E+00
          0                 3           2             4    7     1      -0.3455329669E-01       5    8    1        -0.1858358106E+01      0.4569982960E+01
          0                 4           2             4    7     1       0.3624886462E-01       5    8    1         0.2000105623E+01      0.4899009299E+01
          0                 5           2             4    7     1      -0.1442512895E-02       5    8    1        -0.8183767830E-01      0.2004355575E+00
          0                 6           1             4    7     1       0.1780000256E-04       5    8    1         0.1038219297E-02      0.2542873435E-02

    ------------------------------------------------
       NWT REQUIRED            6 OUTER ITERATIONS 
       AND A TOTAL OF         11 INNER ITERATIONS.
    ------------------------------------------------

 NO OUTPUT CONTROL FOR STRESS PERIOD   34   TIME STEP   21
 
 SOLVING FOR HEAD 
                                                   Max.-Head-Change                         Max.-Flux-Residual
  Residual-Control   Outer-Iter.   Inner-Iter.     Column Row Layer    Maximum-Head-Change  Column Row Layer    Maximum-Flux-Residual          L2-NORM 
          0                 1           2             4    7     1       0.4210391763E-01       4    7    1         0.2213631756E+01      0.4831016853E+01
          0                 2           2             4    7     1      -0.4095585365E-02       4    7    1        -0.2213646987E+00      0.4910993056E+00
          0                 3           2             4    7     1      -0.3455667482E-01       5    8    1        -0.1858669786E+01      0.4570629667E+01
          0                 4           2             4    7     1       0.3624905691E-01       5    8    1         0.2000126486E+01      0.4899052847E+01
          0                 5           2             4    7     1      -0.1442512139E-02       5    8    1        -0.8183804829E-01      0.2004362046E+00
          0                 6           1             4    7     1       0.1779999315E-04       5    8    1         0.1038223892E-02      0.2542883799E-02

    ------------------------------------------------
       NWT REQUIRED            6 OUTER ITERATIONS 
       AND A TOTAL OF         11 INNER ITERATIONS.
    ------------------------------------------------

 NO OUTPUT CONTROL FOR STRESS PERIOD   34   TIME STEP   22
 
 SOLVING FOR HEAD 
                                                   Max.-Head-Change                         Max.-Flux-Residual
  Residual-Control   Outer-Iter.   Inner-Iter.     Column Row Layer    Maximum-Head-Change  Column Row Layer    Maximum-Flux-Residual          L2-NORM 
          0                 1           2             4    7     1       0.4159955377E-01       4    7    1         0.2187629495E+01      0.4736792419E+01
          0                 2           2             4    7     1      -0.4046524945E-02       4    7    1        -0.2187645010E+00      0.4818341404E+00
          0                 3           2             4    7     1      -0.3456008295E-01       5    8    1        -0.1858966689E+01      0.4571256990E+01
          0                 4           2             4    7     1       0.3624926359E-01       5    8    1         0.2000147036E+01      0.4899096478E+01
          0                 5           2             4    7     1      -0.1442520365E-02       5    8    1        -0.8183888274E-01      0.2004379795E+00
          0                 6           1             4    7     1       0.1780009453E-04       5    8    1         0.1038234407E-02      0.2542908323E-02

    ------------------------------------------------
       NWT REQUIRED            6 OUTER ITERATIONS 
       AND A TOTAL OF         11 INNER ITERATIONS.
    ------------------------------------------------

 NO OUTPUT CONTROL FOR STRESS PERIOD   34   TIME STEP   23
 
 SOLVING FOR HEAD 
                                                   Max.-Head-Change                         Max.-Flux-Residual
  Residual-Control   Outer-Iter.   Inner-Iter.     Column Row Layer    Maximum-Head-Change  Column Row Layer    Maximum-Flux-Residual          L2-NORM 
          0                 1           2             4    7     1       0.4109231953E-01       4    7    1         0.2161427925E+01      0.4645947166E+01
          0                 2           2             4    7     1      -0.3997185215E-02       4    7    1        -0.2161443656E+00      0.4729075901E+00
          0                 3           2             4    7     1      -0.3456350784E-01       5    8    1        -0.1859249521E+01      0.4571864783E+01
          0                 4           2             4    7     1       0.3624946295E-01       5    8    1         0.2000166171E+01      0.4899137671E+01
          0                 5           2             4    7     1      -0.1442522694E-02       5    8    1        -0.8183934169E-01      0.2004388725E+00
          0                 6           1             4    7     1       0.1780012343E-04       5    8    1         0.1038240159E-02      0.2542919301E-02

    ------------------------------------------------
       NWT REQUIRED            6 OUTER ITERATIONS 
       AND A TOTAL OF         11 INNER ITERATIONS.
    ------------------------------------------------

 NO OUTPUT CONTROL FOR STRESS PERIOD   34   TIME STEP   24
 
 SOLVING FOR HEAD 
                                                   Max.-Head-Change                         Max.-Flux-Residual
  Residual-Control   Outer-Iter.   Inner-Iter.     Column Row Layer    Maximum-Head-Change  Column Row Layer    Maximum-Flux-Residual          L2-NORM 
          0                 1           2             4    7     1       0.4058299045E-01       4    7    1         0.2135070225E+01      0.4558315221E+01
          0                 2           2             4    7     1      -0.3947641623E-02       4    7    1        -0.2135086112E+00      0.4643028030E+00
          0                 3           2             4    7     1      -0.3456694650E-01       5    8    1        -0.1859519117E+01      0.4572454127E+01
          0                 4           2             4    7     1       0.3624966564E-01       5    8    1         0.2000184545E+01      0.4899177962E+01
          0                 5           2             4    7     1      -0.1442527958E-02       5    8    1        -0.8183992878E-01      0.2004401321E+00
          0                 6           1             4    7     1       0.1780018828E-04       5    8    1         0.1038247530E-02      0.2542938157E-02

    ------------------------------------------------
       NWT REQUIRED            6 OUTER ITERATIONS 
       AND A TOTAL OF         11 INNER ITERATIONS.
    ------------------------------------------------

 NO OUTPUT CONTROL FOR STRESS PERIOD   34   TIME STEP   25
 
 SOLVING FOR HEAD 
                                                   Max.-Head-Change                         Max.-Flux-Residual
  Residual-Control   Outer-Iter.   Inner-Iter.     Column Row Layer    Maximum-Head-Change  Column Row Layer    Maximum-Flux-Residual          L2-NORM 
          0                 1           2             4    7     1       0.4007239528E-01       4    7    1         0.2108603899E+01      0.4473706042E+01
          0                 2           2             4    7     1      -0.3897974794E-02       4    7    1        -0.2108619886E+00      0.4560008026E+00
          0                 3           2             4    7     1      -0.3457039335E-01       5    8    1        -0.1859776355E+01      0.4573025260E+01
          0                 4           2             4    7     1       0.3624986846E-01       5    8    1         0.2000202059E+01      0.4899216975E+01
          0                 5           2             4    7     1      -0.1442533227E-02       5    8    1        -0.8184048103E-01      0.2004413232E+00
          0                 6           1             4    7     1       0.1780025336E-04       5    8    1         0.1038254462E-02      0.2542947464E-02

    ------------------------------------------------
       NWT REQUIRED            6 OUTER ITERATIONS 
       AND A TOTAL OF         11 INNER ITERATIONS.
    ------------------------------------------------

 NO OUTPUT CONTROL FOR STRESS PERIOD   34   TIME STEP   26
 
 SOLVING FOR HEAD 
                                                   Max.-Head-Change                         Max.-Flux-Residual
  Residual-Control   Outer-Iter.   Inner-Iter.     Column Row Layer    Maximum-Head-Change  Column Row Layer    Maximum-Flux-Residual          L2-NORM 
          0                 1           2             4    7     1       0.3956143941E-01       4    7    1         0.2082079211E+01      0.4391969736E+01
          0                 2           2             4    7     1      -0.3848272806E-02       4    7    1        -0.2082095251E+00      0.4479866424E+00
          0                 3           2             4    7     1      -0.3457384230E-01       5    8    1        -0.1860021948E+01      0.4573579781E+01
          0                 4           2             4    7     1       0.3625006819E-01       5    8    1         0.2000204298E+01      0.4899248515E+01
          0                 5           2             4    7     1      -0.1442535570E-02       5    6    1        -0.8183708499E-01      0.2004338780E+00
          0                 6           1             4    7     1       0.1780028182E-04       5    6    1         0.1038174656E-02      0.2542709353E-02

    ------------------------------------------------
       NWT REQUIRED            6 OUTER ITERATIONS 
       AND A TOTAL OF         11 INNER ITERATIONS.
    ------------------------------------------------

 NO OUTPUT CONTROL FOR STRESS PERIOD   34   TIME STEP   27
 
 SOLVING FOR HEAD 
                                                   Max.-Head-Change                         Max.-Flux-Residual
  Residual-Control   Outer-Iter.   Inner-Iter.     Column Row Layer    Maximum-Head-Change  Column Row Layer    Maximum-Flux-Residual          L2-NORM 
          0                 1           2             4    7     1       0.3905069053E-01       4    7    1         0.2055528516E+01      0.4312961496E+01
          0                 2           2             4    7     1      -0.3798590887E-02       4    7    1        -0.2055544563E+00      0.4402461127E+00
          0                 3           2             4    7     1      -0.3457728953E-01       5    8    1        -0.1860256612E+01      0.4574117761E+01
          0                 4           2             4    7     1       0.3625027037E-01       5    8    1         0.2000220285E+01      0.4899285223E+01
          0                 5           2             4    7     1      -0.1442540814E-02       5    6    1        -0.8183759012E-01      0.2004349767E+00
          0                 6           1             4    7     1       0.1780034712E-04       5    6    1         0.1038180993E-02      0.2542720245E-02

    ------------------------------------------------
       NWT REQUIRED            6 OUTER ITERATIONS 
       AND A TOTAL OF         11 INNER ITERATIONS.
    ------------------------------------------------

 NO OUTPUT CONTROL FOR STRESS PERIOD   34   TIME STEP   28
 
 SOLVING FOR HEAD 
                                                   Max.-Head-Change                         Max.-Flux-Residual
  Residual-Control   Outer-Iter.   Inner-Iter.     Column Row Layer    Maximum-Head-Change  Column Row Layer    Maximum-Flux-Residual          L2-NORM 
          0                 1           2             4    7     1       0.3854092916E-01       4    7    1         0.2028995838E+01      0.4236545651E+01
          0                 2           2             4    7     1      -0.3749004967E-02       4    7    1        -0.2029011854E+00      0.4327650410E+00
          0                 3           2             4    7     1      -0.3458073199E-01       5    8    1        -0.1860481018E+01      0.4574640495E+01
          0                 4           2             4    7     1       0.3625047125E-01       5    8    1         0.2000235516E+01      0.4899311355E+01
          0                 5           2             4    7     1      -0.1442543204E-02       5    6    1        -0.8183790637E-01      0.2004225842E+00
          0                 6           1             4    7     1       0.1780037647E-04       5    6    1         0.1038184953E-02      0.2542336949E-02

    ------------------------------------------------
       NWT REQUIRED            6 OUTER ITERATIONS 
       AND A TOTAL OF         11 INNER ITERATIONS.
    ------------------------------------------------

 NO OUTPUT CONTROL FOR STRESS PERIOD   34   TIME STEP   29
 
 SOLVING FOR HEAD 
                                                   Max.-Head-Change                         Max.-Flux-Residual
  Residual-Control   Outer-Iter.   Inner-Iter.     Column Row Layer    Maximum-Head-Change  Column Row Layer    Maximum-Flux-Residual          L2-NORM 
          0                 1           2             4    7     1       0.3803260966E-01       4    7    1         0.2002507055E+01      0.4162589501E+01
          0                 2           2             4    7     1      -0.3699559251E-02       4    7    1        -0.2002523005E+00      0.4255304481E+00
          0                 3           2             4    7     1      -0.3458415998E-01       5    8    1        -0.1860695545E+01      0.4575147568E+01
          0                 4           2             4    7     1       0.3625066661E-01       5    8    1         0.2000249820E+01      0.4899345253E+01
          0                 5           2             4    7     1      -0.1442545374E-02       5    6    1        -0.8183818518E-01      0.2004231945E+00
          0                 6           1             4    7     1       0.1780040324E-04       5    6    1         0.1038188428E-02      0.2542343341E-02

    ------------------------------------------------
       NWT REQUIRED            6 OUTER ITERATIONS 
       AND A TOTAL OF         11 INNER ITERATIONS.
    ------------------------------------------------

 NO OUTPUT CONTROL FOR STRESS PERIOD   34   TIME STEP   30



 STREAM LISTING     PERIOD     34   STEP       30

 LAYER ROW COL. STREAM  RCH.  FLOW INTO     FLOW TO   FLOW OUT OF   OVRLND.     DIRECT     STREAM       STREAM     STREAM     STREAM   STREAMBED  STREAMBED
                SEG.NO.  NO.  STRM. RCH.    AQUIFER    STRM. RCH.    RUNOFF     PRECIP       ET          HEAD       DEPTH      WIDTH   CONDCTNC.   GRADIENT

   1    1    1     1     1    1.7624E+01  2.0521E-01   1.7419E+01  0.000E+00  0.000E+00  0.000E+00  1.09411E+03  1.059E+00  1.124E+01  5.056E-02  1.353E+00
   1    2    2     1     2    1.7419E+01  3.1648E-01   1.7103E+01  0.000E+00  0.000E+00  0.000E+00  1.08911E+03  1.054E+00  1.115E+01  7.807E-02  1.351E+00
   1    3    3     1     3    1.7103E+01  2.6863E-01   1.6834E+01  0.000E+00  0.000E+00  0.000E+00  1.08347E+03  1.049E+00  1.106E+01  6.635E-02  1.350E+00
   1    3    4     1     4    1.6834E+01  2.4632E-01   1.6588E+01  0.000E+00  0.000E+00  0.000E+00  1.07845E+03  1.044E+00  1.097E+01  6.091E-02  1.348E+00
   1    4    5     2     1    1.4588E+01  3.0175E-01   1.4286E+01  0.000E+00  0.000E+00  0.000E+00  1.07280E+03  8.686E-01  1.200E+01  7.800E-02  1.290E+00
   1    5    6     2     2    1.4286E+01  2.3154E-01   1.4055E+01  0.000E+00  0.000E+00  0.000E+00  1.06737E+03  8.590E-01  1.200E+01  6.000E-02  1.286E+00
   1    6    6     2     3    1.4055E+01  2.3103E-01   1.3824E+01  0.000E+00  0.000E+00  0.000E+00  1.06264E+03  8.505E-01  1.200E+01  6.000E-02  1.284E+00
   1    7    6     2     4    1.3824E+01  2.3052E-01   1.3593E+01  0.000E+00  0.000E+00  0.000E+00  1.05792E+03  8.420E-01  1.200E+01  6.000E-02  1.281E+00
   1    8    6     2     5    1.3593E+01  2.3001E-01   1.3363E+01  0.000E+00  0.000E+00  0.000E+00  1.05319E+03  8.335E-01  1.200E+01  6.000E-02  1.278E+00
   1    3    5     3     1    2.0000E+00  2.8252E-01   1.7175E+00  0.000E+00  0.000E+00  0.000E+00  1.07555E+03  1.909E+00  9.636E+00  7.227E-02  1.955E+00
   1    3    6     3     2    1.7175E+00  2.4905E-01   1.4684E+00  0.000E+00  0.000E+00  0.000E+00  1.07264E+03  1.727E+00  8.909E+00  6.682E-02  1.864E+00
   1    3    7     3     3    1.4684E+00  1.9718E-01   1.2712E+00  0.000E+00  0.000E+00  0.000E+00  1.06987E+03  1.555E+00  8.218E+00  5.547E-02  1.777E+00
   1    4    8     3     4    1.2712E+00  2.2567E-01   1.0456E+00  0.000E+00  0.000E+00  0.000E+00  1.06682E+03  1.364E+00  7.455E+00  6.709E-02  1.682E+00
   1    5    8     3     5    1.0456E+00  1.5790E-01   8.8768E-01  0.000E+00  0.000E+00  0.000E+00  1.06362E+03  1.164E+00  6.655E+00  4.991E-02  1.582E+00
   1    6    8     3     6    8.8768E-01  5.5980E-02   8.3170E-01  0.000E+00  0.000E+00  0.000E+00  1.06158E+03  1.036E+00  6.145E+00  1.844E-02  1.518E+00
   1    5   10     4     1    1.0000E+01  9.0919E-02   9.9091E+00  0.000E+00  0.000E+00  0.000E+00  1.07836E+03  6.368E-01  1.000E+01  2.500E-02  1.212E+00
   1    5    9     4     2    9.9091E+00  1.8158E-01   9.7275E+00  0.000E+00  0.000E+00  0.000E+00  1.07154E+03  6.315E-01  1.000E+01  5.000E-02  1.211E+00
   1    6    8     4     3    9.7275E+00  1.2689E-01   9.6006E+00  0.000E+00  0.000E+00  0.000E+00  1.06381E+03  6.256E-01  1.000E+01  3.500E-02  1.209E+00
   1    6    8     5     1    1.0432E+01  2.2686E-01   1.0205E+01  0.000E+00  0.000E+00  0.000E+00  1.05868E+03  6.790E-01  1.542E+01  6.166E-02  1.226E+00
   1    7    7     5     2    1.0205E+01  2.7894E-01   9.9265E+00  0.000E+00  0.000E+00  0.000E+00  1.05417E+03  6.732E-01  1.519E+01  7.594E-02  1.224E+00
   1    8    7     5     3    9.9265E+00  1.9221E-01   9.7343E+00  0.000E+00  0.000E+00  0.000E+00  1.04992E+03  6.676E-01  1.497E+01  5.241E-02  1.223E+00
   1    8    6     5     4    9.7343E+00  1.3577E-01   9.5985E+00  0.000E+00  0.000E+00  0.000E+00  1.04691E+03  6.637E-01  1.482E+01  3.706E-02  1.221E+00
   1    9    6     6     1    1.1742E+01  2.2628E-01   1.1515E+01  0.000E+00  0.000E+00  0.000E+00  1.04350E+03  7.714E-01  1.200E+01  6.000E-02  1.257E+00
   1   10    7     6     2    1.1515E+01  2.2574E-01   1.1289E+01  0.000E+00  0.000E+00  0.000E+00  1.03894E+03  7.624E-01  1.200E+01  6.000E-02  1.254E+00
   1   11    7     6     3    1.1289E+01  2.2520E-01   1.1064E+01  0.000E+00  0.000E+00  0.000E+00  1.03439E+03  7.533E-01  1.200E+01  6.000E-02  1.251E+00
   1   12    7     6     4    1.1064E+01  2.2465E-01   1.0840E+01  0.000E+00  0.000E+00  0.000E+00  1.02984E+03  7.442E-01  1.200E+01  6.000E-02  1.248E+00
   1   13    7     6     5    1.0840E+01 -1.4202E-03   1.0841E+01  0.000E+00  0.000E+00  0.000E+00  1.02665E+03  7.396E-01  1.200E+01  2.400E-01 -1.972E-03
   1   14    9     7     1    1.5000E+02  1.3824E+00   1.4862E+02  0.000E+00  0.000E+00  0.000E+00  1.03987E+03  2.288E+00  5.529E+01  5.593E-01  8.239E-01
   1   13    8     7     2    1.4862E+02  1.9730E+00   1.4664E+02  0.000E+00  0.000E+00  0.000E+00  1.03478E+03  2.279E+00  5.525E+01  6.147E-01  1.070E+00
   1   13    7     7     3    1.4664E+02  1.6939E+00   1.4495E+02  0.000E+00  0.000E+00  0.000E+00  1.02969E+03  2.269E+00  5.521E+01  5.584E-01  1.011E+00
   1   13    6     8     1    1.5579E+02  1.0601E+00   1.5473E+02  0.000E+00  0.000E+00  0.000E+00  1.02473E+03  2.853E+00  4.138E+01  4.216E-01  8.381E-01
   1   13    5     8     2    1.5473E+02  3.1352E-01   1.5442E+02  0.000E+00  0.000E+00  0.000E+00  1.01847E+03  2.849E+00  4.131E+01  4.209E-01  2.483E-01
   1   13    4     8     3    1.5442E+02 -1.9517E+00   1.5637E+02  0.000E+00  0.000E+00  0.000E+00  1.01223E+03  2.854E+00  4.139E+01  4.218E+00 -1.542E-01
   1   13    3     8     4    1.5637E+02 -3.3980E+00   1.5977E+02  0.000E+00  0.000E+00  0.000E+00  1.00600E+03  2.873E+00  4.165E+01  4.245E+00 -2.668E-01
   1   13    2     8     5    1.5977E+02 -2.5131E+00   1.6228E+02  0.000E+00  0.000E+00  0.000E+00  9.99768E+02  2.893E+00  4.195E+01  4.274E+00 -1.960E-01
   1   13    1     8     6    1.6228E+02 -1.9603E+00   1.6424E+02  0.000E+00  0.000E+00  0.000E+00  9.94783E+02  2.908E+00  4.216E+01  2.578E+00 -2.535E-01
   1    8    6     9     1    1.1220E+01  0.0000E+00   1.1220E+01  0.000E+00  0.000E+00  0.000E+00  1.08118E+03  2.428E+00  4.000E+00  0.000E+00  1.809E+00
   1    8    5     9     2    1.1220E+01  0.0000E+00   1.1220E+01  0.000E+00  0.000E+00  0.000E+00  1.08068E+03  2.428E+00  4.000E+00  0.000E+00  1.809E+00





UNSATURATED ZONE PACKAGE VOLUMETRIC BUDGET FOR  TIME STEP    30 STRESS PERIOD   34
  ------------------------------------------------------------------------------



     CUMULATIVE VOLUMES      L**3       RATES FOR THIS TIME STEP      L**3/T
     ------------------                 ------------------------

           IN:                                      IN:
           ---                                      ---
        INFILTRATION =  1279543922.5223          INFILTRATION =          12.0677

          OUT:                                     OUT:
          ----                                     ----
              UZF ET =  1274646432.1128                UZF ET =          12.0675
        UZF RECHARGE =       73224.0000          UZF RECHARGE =       0.0000E+00

            IN - OUT =     4824266.4095              IN - OUT =       2.2459E-04

          STORAGE:                                 STORAGE:
          --------                                 --------
      STORAGE CHANGE =     4824269.5327        STORAGE CHANGE =       2.2489E-04

 PERCENT DISCREPANCY IS DIFFERENCE BETWEEN IN-OUT MINUS CHANGE IN STORAGE
 DIVIDED BY THE AVERAGE OF IN AND OUT TIMES 100

 PERCENT DISCREPANCY =           0.00     PERCENT DISCREPANCY =          -0.00






1
  VOLUMETRIC BUDGET FOR AGRICULTURAL FIELDS AT  END OF TIME STEP   30, STRESS PERIOD  34
  ------------------------------------------------------------------------------

     CUMULATIVE VOLUMES      L**3       RATES FOR THIS TIME STEP      L**3/T
     ------------------                 ------------------------

           IN:                                      IN:
           ---                                      ---
           AG WELLS      =   605950784.0000             AG WELLS      =           0.0000
      DIVERSION SEGMENTS =   600022848.0000        DIVERSION SEGMENTS =          11.2200
           GW IRRIGATION =           0.0000             GW IRRIGATION =           0.0000
           SW IRRIGATION =           0.0000             SW IRRIGATION =           0.0000
        SYSTEM LOSSES GW =           0.0000          SYSTEM LOSSES GW =           0.0000
        SYSTEM LOSSES SW =           0.0000          SYSTEM LOSSES SW =           0.0000

                TOTAL IN =  1205973632.0000                  TOTAL IN =          11.2200

          OUT:                                     OUT:
          ----                                     ----
           AG WELLS      =           0.0000             AG WELLS      =           0.0000
      DIVERSION SEGMENTS =           0.0000        DIVERSION SEGMENTS =           0.0000
           GW IRRIGATION =   605950784.0000             GW IRRIGATION =           0.0000
           SW IRRIGATION =   600032640.0000             SW IRRIGATION =          11.2202
        SYSTEM LOSSES GW =           0.0000          SYSTEM LOSSES GW =           0.0000
        SYSTEM LOSSES SW =           0.0000          SYSTEM LOSSES SW =           0.0000

               TOTAL OUT =  1205983488.0000                 TOTAL OUT =          11.2202

                IN - OUT =       -9856.0000                  IN - OUT =      -2.2411E-04

     PERCENT DISCREPANCY =          -0.00         PERCENT DISCREPANCY =          -0.00



1
  VOLUMETRIC BUDGET FOR ENTIRE MODEL AT END OF TIME STEP   30, STRESS PERIOD  34
  ------------------------------------------------------------------------------

     CUMULATIVE VOLUMES      L**3       RATES FOR THIS TIME STEP      L**3/T
     ------------------                 ------------------------

           IN:                                      IN:
           ---                                      ---
             STORAGE     =   848479296.0000               STORAGE     =           7.5300
       CONSTANT HEAD     =           0.0000         CONSTANT HEAD     =           0.0000
     HEAD DEP BOUNDS     =    25041132.0000       HEAD DEP BOUNDS     =           0.2889
      STREAM LEAKAGE     =  1026088640.0000        STREAM LEAKAGE     =          11.9877
        UZF RECHARGE     =       73223.9531          UZF RECHARGE     =           0.0000
               GW ET     =           0.0000                 GW ET     =           0.0000
     SURFACE LEAKAGE     =           0.0000       SURFACE LEAKAGE     =           0.0000
           AG WELLS      =           0.0000             AG WELLS      =           0.0000

                TOTAL IN =  1899682304.0000                  TOTAL IN =          19.8067

          OUT:                                     OUT:
          ----                                     ----
             STORAGE     =   387657568.0000               STORAGE     =           9.6953
       CONSTANT HEAD     =           0.0000         CONSTANT HEAD     =           0.0000
     HEAD DEP BOUNDS     =    25008338.0000       HEAD DEP BOUNDS     =           0.2866
      STREAM LEAKAGE     =   881076992.0000        STREAM LEAKAGE     =           9.8246
        UZF RECHARGE     =           0.0000          UZF RECHARGE     =           0.0000
               GW ET     =           0.0000                 GW ET     =           0.0000
     SURFACE LEAKAGE     =           0.0000       SURFACE LEAKAGE     =           0.0000
           AG WELLS      =   605950784.0000             AG WELLS      =           0.0000

               TOTAL OUT =  1899693568.0000                 TOTAL OUT =          19.8066

                IN - OUT =      -11264.0000                  IN - OUT =       9.5367E-05

     PERCENT DISCREPANCY =          -0.00         PERCENT DISCREPANCY =           0.00






         TIME SUMMARY AT END OF TIME STEP   30 IN STRESS PERIOD   34
                    SECONDS     MINUTES      HOURS       DAYS        YEARS
                    -----------------------------------------------------------
   TIME STEP LENGTH  87667.      1461.1      24.352      1.0147     2.77799E-03
 STRESS PERIOD TIME 2.63000E+06  43833.      730.56      30.440     8.33397E-02
         TOTAL TIME 8.68762E+07 1.44794E+06  24132.      1005.5      2.7529    
1
1
                            STRESS PERIOD NO.   35, LENGTH =   2630000.    
                            -----------------------------------------------

                              NUMBER OF TIME STEPS =    30

                               MULTIPLIER FOR DELT =     1.000

                            INITIAL TIME STEP SIZE =   87666.66    

 REUSING NON-PARAMETER GHB CELLS FROM LAST STRESS PERIOD

      2 GHB CELLS

 REUSING STREAM SEGMENT DATA FROM LAST STRESS PERIOD



            AREAL INFILTRATION RATE
 READING ON UNIT   19 WITH FORMAT: (FREE)              

            1           2           3           4           5           6           7           8           9          10
 ........................................................................................................................
   1   1.0000E-10  2.0000E-10   0.000       0.000       0.000       0.000       0.000       0.000       0.000       0.000    
   2   2.0000E-10  1.0000E-10  2.0000E-10   0.000       0.000      8.0000E-10  8.0000E-10  5.0000E-10   0.000       0.000    
   3    0.000      5.0000E-10  1.0000E-10  1.0000E-10  8.0000E-10  8.0000E-10  5.0000E-10  5.0000E-10   0.000       0.000    
   4   8.0000E-10  5.0000E-10  1.0000E-10  1.0000E-10  1.0000E-10  1.0000E-10  1.0000E-10  1.0000E-10  2.0000E-10   0.000    
   5   8.0000E-10  5.0000E-10  1.0000E-10  1.0000E-10  1.0000E-10  1.0000E-10  1.0000E-10  1.0000E-10  1.0000E-10  1.0000E-10
   6   8.0000E-10  5.0000E-10  5.0000E-10  2.0000E-10  2.0000E-10  1.0000E-10  1.0000E-10  1.0000E-10  1.0000E-10  5.0000E-10
   7   8.0000E-10  5.0000E-10  5.0000E-10  2.0000E-10  2.0000E-10  1.0000E-10  1.0000E-10  2.0000E-10  2.0000E-10   0.000    
   8    0.000      5.0000E-10  5.0000E-10  2.0000E-10  2.0000E-10  1.0000E-10  1.0000E-10  2.0000E-10  5.0000E-10   0.000    
   9    0.000      5.0000E-10  5.0000E-10  2.0000E-10  2.0000E-10  1.0000E-10  1.0000E-10  2.0000E-10  5.0000E-10   0.000    
  10    0.000      5.0000E-10  5.0000E-10  2.0000E-10  2.0000E-10  1.0000E-10  1.0000E-10  2.0000E-10  5.0000E-10  8.0000E-10
  11    0.000      1.0000E-10  1.0000E-10  1.0000E-10  1.0000E-10  1.0000E-10  1.0000E-10  2.0000E-10  5.0000E-10   0.000    
  12   1.0000E-10  1.0000E-10  1.0000E-10  1.0000E-10  1.0000E-10  1.0000E-10  1.0000E-10  1.0000E-10  2.0000E-10   0.000    
  13   1.0000E-10  1.0000E-10  2.0000E-10  2.0000E-10  2.0000E-10  2.0000E-10  2.0000E-10  1.0000E-10  1.0000E-10   0.000    
  14    0.000      2.0000E-10  5.0000E-10  5.0000E-10  5.0000E-10  5.0000E-10  5.0000E-10  2.0000E-10  1.0000E-10   0.000    
  15    0.000       0.000      8.0000E-10  8.0000E-10  8.0000E-10  8.0000E-10   0.000       0.000       0.000       0.000    

                  ET RATE =  5.000000E-09

 USING ET EXTINCTION DEPTH FROM PREVIOUS STRESS PERIOD. CURRENT PERIOD IS:      35

 USING EXTINCTION WATER CONTENT FROM PREVIOUS STRESS PERIOD. CURRENT PERIOD IS:      35

 USING AIR ENTRY PRESSURE FROM PREVIOUS STRESS PERIOD. CURRENT PERIOD IS:      35

 USING ROOT PRESSURE HEAD FROM PREVIOUS STRESS PERIOD. CURRENT PERIOD IS:      35

 USING ROOT ACTIVITY FROM PREVIOUS STRESS PERIOD. CURRENT PERIOD IS:      35

 PROCESSING AG STRESS PERIOD DATA

 READING AG STRESS PERIOD DATA

 READING IRRIGATION SEGMENT

 READING IRRIGATION WELL

 READING SUPPLEMENTAL WELL

 END PROCESSING AG STRESS PERIOD DATA OPTIONS
 
 SOLVING FOR HEAD 
                                                   Max.-Head-Change                         Max.-Flux-Residual
  Residual-Control   Outer-Iter.   Inner-Iter.     Column Row Layer    Maximum-Head-Change  Column Row Layer    Maximum-Flux-Residual          L2-NORM 
          0                 1           2             4    7     1       0.3752640593E-01       4    7    1         0.1976100318E+01      0.4087868266E+01
          0                 2           2             4    7     1      -0.3650319098E-02       4    7    1        -0.1976116065E+00      0.4171340625E+00
          0                 3           2             4    7     1       0.2485729724E-03       4    7    1         0.1383280354E-01      0.2918737753E-01
          0                 4           1             4    7     1      -0.9890951889E-05       4    7    1        -0.5657625252E-03      0.1192867730E-02

    ------------------------------------------------
       NWT REQUIRED            4 OUTER ITERATIONS 
       AND A TOTAL OF          7 INNER ITERATIONS.
    ------------------------------------------------

 NO OUTPUT CONTROL FOR STRESS PERIOD   35   TIME STEP    1
 
 SOLVING FOR HEAD 
                                                   Max.-Head-Change                         Max.-Flux-Residual
  Residual-Control   Outer-Iter.   Inner-Iter.     Column Row Layer    Maximum-Head-Change  Column Row Layer    Maximum-Flux-Residual          L2-NORM 
          0                 1           2             4    7     1       0.3702264541E-01       4    7    1         0.1949795986E+01      0.4011444011E+01
          0                 2           2             4    7     1      -0.3601317090E-02       4    7    1        -0.1949811788E+00      0.4010799366E+00
          0                 3           2             5    8     1      -0.2010717981E-02       5    8    1        -0.1107809889E+00      0.2681286505E+00
          0                 4           2             4    7     1       0.2303810098E-02       5    8    1         0.1274250378E+00      0.3117977739E+00
          0                 5           1             4    7     1      -0.9169252835E-04       5    8    1        -0.5213645890E-02      0.1275612474E-01

    ------------------------------------------------
       NWT REQUIRED            5 OUTER ITERATIONS 
       AND A TOTAL OF          9 INNER ITERATIONS.
    ------------------------------------------------

 NO OUTPUT CONTROL FOR STRESS PERIOD   35   TIME STEP    2
 
 SOLVING FOR HEAD 
                                                   Max.-Head-Change                         Max.-Flux-Residual
  Residual-Control   Outer-Iter.   Inner-Iter.     Column Row Layer    Maximum-Head-Change  Column Row Layer    Maximum-Flux-Residual          L2-NORM 
          0                 1           2             4    7     1       0.3652177070E-01       4    7    1         0.1923618647E+01      0.3940263092E+01
          0                 2           2             4    7     1      -0.3552595151E-02       4    7    1        -0.1923634153E+00      0.3939946887E+00
          0                 3           2             5    6     1      -0.2014618741E-02       5    8    1        -0.1109934613E+00      0.2687019062E+00
          0                 4           2             4    7     1       0.2304487515E-02       5    8    1         0.1274622321E+00      0.3118908531E+00
          0                 5           1             4    7     1      -0.9171931418E-04       5    8    1        -0.5214440469E-02      0.1275950329E-01

    ------------------------------------------------
       NWT REQUIRED            5 OUTER ITERATIONS 
       AND A TOTAL OF          9 INNER ITERATIONS.
    ------------------------------------------------

 NO OUTPUT CONTROL FOR STRESS PERIOD   35   TIME STEP    3
 
 SOLVING FOR HEAD 
                                                   Max.-Head-Change                         Max.-Flux-Residual
  Residual-Control   Outer-Iter.   Inner-Iter.     Column Row Layer    Maximum-Head-Change  Column Row Layer    Maximum-Flux-Residual          L2-NORM 
          0                 1           2             4    7     1       0.3602431402E-01       4    7    1         0.1897597884E+01      0.3873726552E+01
          0                 2           2             4    7     1      -0.3504205938E-02       4    7    1        -0.1897613222E+00      0.3873448157E+00
          0                 3           2             5    6     1      -0.2018379758E-02       5    8    1        -0.1111958669E+00      0.2692102793E+00
          0                 4           2             4    7     1       0.2305111373E-02       5    8    1         0.1274967675E+00      0.3119761730E+00
          0                 5           1             4    7     1      -0.9174431944E-04       5    8    1        -0.5215863248E-02      0.1276301092E-01

    ------------------------------------------------
       NWT REQUIRED            5 OUTER ITERATIONS 
       AND A TOTAL OF          9 INNER ITERATIONS.
    ------------------------------------------------

 NO OUTPUT CONTROL FOR STRESS PERIOD   35   TIME STEP    4
 
 SOLVING FOR HEAD 
                                                   Max.-Head-Change                         Max.-Flux-Residual
  Residual-Control   Outer-Iter.   Inner-Iter.     Column Row Layer    Maximum-Head-Change  Column Row Layer    Maximum-Flux-Residual          L2-NORM 
          0                 1           2             4    7     1       0.3553064238E-01       4    7    1         0.1871754333E+01      0.3809220691E+01
          0                 2           2             4    7     1      -0.3456184825E-02       4    7    1        -0.1871769455E+00      0.3808975289E+00
          0                 3           2             5    6     1      -0.2021986506E-02       5    8    1        -0.1113895372E+00      0.2697022810E+00
          0                 4           2             4    7     1       0.2305705408E-02       5    8    1         0.1275292434E+00      0.3120568291E+00
          0                 5           1             4    7     1      -0.9176796226E-04       5    8    1        -0.5217191824E-02      0.1276631318E-01

    ------------------------------------------------
       NWT REQUIRED            5 OUTER ITERATIONS 
       AND A TOTAL OF          9 INNER ITERATIONS.
    ------------------------------------------------

 NO OUTPUT CONTROL FOR STRESS PERIOD   35   TIME STEP    5
 
 SOLVING FOR HEAD 
                                                   Max.-Head-Change                         Max.-Flux-Residual
  Residual-Control   Outer-Iter.   Inner-Iter.     Column Row Layer    Maximum-Head-Change  Column Row Layer    Maximum-Flux-Residual          L2-NORM 
          0                 1           2             4    7     1       0.3504094819E-01       4    7    1         0.1846099723E+01      0.3746651953E+01
          0                 2           2             4    7     1      -0.3408550640E-02       4    7    1        -0.1846114643E+00      0.3746435452E+00
          0                 3           2             5    6     1      -0.2025444492E-02       5    8    1        -0.1115748758E+00      0.2701786055E+00
          0                 4           2             4    7     1       0.2306271583E-02       5    8    1         0.1275597949E+00      0.3121331174E+00
          0                 5           1             4    7     1      -0.9179049628E-04       5    8    1        -0.5218441688E-02      0.1276943351E-01

    ------------------------------------------------
       NWT REQUIRED            5 OUTER ITERATIONS 
       AND A TOTAL OF          9 INNER ITERATIONS.
    ------------------------------------------------

 NO OUTPUT CONTROL FOR STRESS PERIOD   35   TIME STEP    6
 
 SOLVING FOR HEAD 
                                                   Max.-Head-Change                         Max.-Flux-Residual
  Residual-Control   Outer-Iter.   Inner-Iter.     Column Row Layer    Maximum-Head-Change  Column Row Layer    Maximum-Flux-Residual          L2-NORM 
          0                 1           2             4    7     1       0.3455566593E-01       4    7    1         0.1820658630E+01      0.3685924412E+01
          0                 2           2             4    7     1      -0.3361345594E-02       4    7    1        -0.1820673333E+00      0.3685733087E+00
          0                 3           2             5    6     1      -0.2028763292E-02       5    8    1        -0.1117524433E+00      0.2706398246E+00
          0                 4           2             4    7     1       0.2306811726E-02       5    8    1         0.1275885655E+00      0.3122053504E+00
          0                 5           1             4    7     1      -0.9181199426E-04       5    8    1        -0.5219618680E-02      0.1277239332E-01

    ------------------------------------------------
       NWT REQUIRED            5 OUTER ITERATIONS 
       AND A TOTAL OF          9 INNER ITERATIONS.
    ------------------------------------------------

 NO OUTPUT CONTROL FOR STRESS PERIOD   35   TIME STEP    7
 
 SOLVING FOR HEAD 
                                                   Max.-Head-Change                         Max.-Flux-Residual
  Residual-Control   Outer-Iter.   Inner-Iter.     Column Row Layer    Maximum-Head-Change  Column Row Layer    Maximum-Flux-Residual          L2-NORM 
          0                 1           2             4    7     1       0.3407492065E-01       4    7    1         0.1795438980E+01      0.3626946829E+01
          0                 2           2             4    7     1      -0.3314582049E-02       4    7    1        -0.1795453559E+00      0.3626779478E+00
          0                 3           2             5    6     1      -0.2031950494E-02       5    8    1        -0.1119226335E+00      0.2710865355E+00
          0                 4           2             4    7     1       0.2307327500E-02       5    8    1         0.1276156723E+00      0.3122737920E+00
          0                 5           1             4    7     1      -0.9183287273E-04       5    8    1        -0.5220747484E-02      0.1277523032E-01

    ------------------------------------------------
       NWT REQUIRED            5 OUTER ITERATIONS 
       AND A TOTAL OF          9 INNER ITERATIONS.
    ------------------------------------------------

 NO OUTPUT CONTROL FOR STRESS PERIOD   35   TIME STEP    8
 
 SOLVING FOR HEAD 
                                                   Max.-Head-Change                         Max.-Flux-Residual
  Residual-Control   Outer-Iter.   Inner-Iter.     Column Row Layer    Maximum-Head-Change  Column Row Layer    Maximum-Flux-Residual          L2-NORM 
          0                 1           2             4    7     1       0.3359921851E-01       4    7    1         0.1770469161E+01      0.3569646178E+01
          0                 2           2             4    7     1      -0.3268308664E-02       4    7    1        -0.1770483399E+00      0.3569496437E+00
          0                 3           2             5    6     1      -0.2035013667E-02       5    8    1        -0.1120860029E+00      0.2715205357E+00
          0                 4           2             4    7     1       0.2307821027E-02       5    8    1         0.1276412733E+00      0.3123387917E+00
          0                 5           1             4    7     1      -0.9185216472E-04       5    8    1        -0.5221774937E-02      0.1277784841E-01

    ------------------------------------------------
       NWT REQUIRED            5 OUTER ITERATIONS 
       AND A TOTAL OF          9 INNER ITERATIONS.
    ------------------------------------------------

 NO OUTPUT CONTROL FOR STRESS PERIOD   35   TIME STEP    9
 
 SOLVING FOR HEAD 
                                                   Max.-Head-Change                         Max.-Flux-Residual
  Residual-Control   Outer-Iter.   Inner-Iter.     Column Row Layer    Maximum-Head-Change  Column Row Layer    Maximum-Flux-Residual          L2-NORM 
          0                 1           2             4    7     1       0.3312849161E-01       4    7    1         0.1745746212E+01      0.3513948253E+01
          0                 2           2             4    7     1      -0.3222519415E-02       4    7    1        -0.1745760205E+00      0.3513814990E+00
          0                 3           2             5    6     1      -0.2037958776E-02       5    8    1        -0.1122427918E+00      0.2719411515E+00
          0                 4           2             4    7     1       0.2308293453E-02       5    8    1         0.1276654451E+00      0.3124005161E+00
          0                 5           1             4    7     1      -0.9187096765E-04       5    8    1        -0.5222763807E-02      0.1278037495E-01

    ------------------------------------------------
       NWT REQUIRED            5 OUTER ITERATIONS 
       AND A TOTAL OF          9 INNER ITERATIONS.
    ------------------------------------------------

 NO OUTPUT CONTROL FOR STRESS PERIOD   35   TIME STEP   10
 
 SOLVING FOR HEAD 
                                                   Max.-Head-Change                         Max.-Flux-Residual
  Residual-Control   Outer-Iter.   Inner-Iter.     Column Row Layer    Maximum-Head-Change  Column Row Layer    Maximum-Flux-Residual          L2-NORM 
          0                 1           2             4    7     1       0.3266319391E-01       4    7    1         0.1721295820E+01      0.3459784343E+01
          0                 2           2             4    7     1      -0.3177258269E-02       4    7    1        -0.1721309560E+00      0.3459666023E+00
          0                 3           2             5    6     1      -0.2040793429E-02       5    8    1        -0.1123934423E+00      0.2723491067E+00
          0                 4           2             4    7     1       0.2308745524E-02       5    8    1         0.1276882657E+00      0.3124591258E+00
          0                 5           1             4    7     1      -0.9188860986E-04       5    8    1        -0.5223677517E-02      0.1278271606E-01

    ------------------------------------------------
       NWT REQUIRED            5 OUTER ITERATIONS 
       AND A TOTAL OF          9 INNER ITERATIONS.
    ------------------------------------------------

 NO OUTPUT CONTROL FOR STRESS PERIOD   35   TIME STEP   11
 
 SOLVING FOR HEAD 
                                                   Max.-Head-Change                         Max.-Flux-Residual
  Residual-Control   Outer-Iter.   Inner-Iter.     Column Row Layer    Maximum-Head-Change  Column Row Layer    Maximum-Flux-Residual          L2-NORM 
          0                 1           2             4    7     1       0.3220320248E-01       4    7    1         0.1697112311E+01      0.3407076909E+01
          0                 2           2             4    7     1      -0.3132513272E-02       4    7    1        -0.1697125795E+00      0.3406971753E+00
          0                 3           2             5    6     1      -0.2043521768E-02       5    8    1        -0.1125382577E+00      0.2727453936E+00
          0                 4           2             4    7     1       0.2309179642E-02       5    8    1         0.1277098807E+00      0.3125149801E+00
          0                 5           1             4    7     1      -0.9190623836E-04       5    8    1        -0.5224581644E-02      0.1278506111E-01

    ------------------------------------------------
       NWT REQUIRED            5 OUTER ITERATIONS 
       AND A TOTAL OF          9 INNER ITERATIONS.
    ------------------------------------------------

 NO OUTPUT CONTROL FOR STRESS PERIOD   35   TIME STEP   12
 
 SOLVING FOR HEAD 
                                                   Max.-Head-Change                         Max.-Flux-Residual
  Residual-Control   Outer-Iter.   Inner-Iter.     Column Row Layer    Maximum-Head-Change  Column Row Layer    Maximum-Flux-Residual          L2-NORM 
          0                 1           2             4    7     1       0.3174892886E-01       4    7    1         0.1673218526E+01      0.3355789340E+01
          0                 2           2             4    7     1      -0.3088324454E-02       4    7    1        -0.1673231748E+00      0.3355695702E+00
          0                 3           2             5    6     1      -0.2046149220E-02       5    8    1        -0.1126776092E+00      0.2731301629E+00
          0                 4           2             4    7     1       0.2309595946E-02       5    8    1         0.1277303307E+00      0.3125681126E+00
          0                 5           1             4    7     1      -0.9192280733E-04       5    8    1        -0.5225418259E-02      0.1278723017E-01

    ------------------------------------------------
       NWT REQUIRED            5 OUTER ITERATIONS 
       AND A TOTAL OF          9 INNER ITERATIONS.
    ------------------------------------------------

 NO OUTPUT CONTROL FOR STRESS PERIOD   35   TIME STEP   13
 
 SOLVING FOR HEAD 
                                                   Max.-Head-Change                         Max.-Flux-Residual
  Residual-Control   Outer-Iter.   Inner-Iter.     Column Row Layer    Maximum-Head-Change  Column Row Layer    Maximum-Flux-Residual          L2-NORM 
          0                 1           2             4    7     1       0.3130034420E-01       4    7    1         0.1649613891E+01      0.3305840441E+01
          0                 2           2             4    7     1      -0.3044689207E-02       4    7    1        -0.1649626953E+00      0.3305792215E+00
          0                 3           2             5    6     1      -0.2048682205E-02       5    8    1        -0.1128117468E+00      0.2735040514E+00
          0                 4           2             4    7     1       0.2309995555E-02       5    8    1         0.1277496906E+00      0.3126187260E+00
          0                 5           1             4    7     1      -0.9193871178E-04       5    8    1        -0.5226210273E-02      0.1278930384E-01

    ------------------------------------------------
       NWT REQUIRED            5 OUTER ITERATIONS 
       AND A TOTAL OF          9 INNER ITERATIONS.
    ------------------------------------------------

 NO OUTPUT CONTROL FOR STRESS PERIOD   35   TIME STEP   14
 
 SOLVING FOR HEAD 
                                                   Max.-Head-Change                         Max.-Flux-Residual
  Residual-Control   Outer-Iter.   Inner-Iter.     Column Row Layer    Maximum-Head-Change  Column Row Layer    Maximum-Flux-Residual          L2-NORM 
          0                 1           2             4    7     1       0.3085754606E-01       4    7    1         0.1626304214E+01      0.3257184010E+01
          0                 2           2             4    7     1      -0.3001616440E-02       4    7    1        -0.1626316907E+00      0.3257109394E+00
          0                 3           2             5    6     1      -0.2051125723E-02       5    8    1        -0.1129410163E+00      0.2738675018E+00
          0                 4           2             4    7     1       0.2310380094E-02       5    8    1         0.1277680689E+00      0.3126670389E+00
          0                 5           1             4    7     1      -0.9195401699E-04       5    8    1        -0.5226962116E-02      0.1279127989E-01

    ------------------------------------------------
       NWT REQUIRED            5 OUTER ITERATIONS 
       AND A TOTAL OF          9 INNER ITERATIONS.
    ------------------------------------------------

 NO OUTPUT CONTROL FOR STRESS PERIOD   35   TIME STEP   15
 
 SOLVING FOR HEAD 
                                                   Max.-Head-Change                         Max.-Flux-Residual
  Residual-Control   Outer-Iter.   Inner-Iter.     Column Row Layer    Maximum-Head-Change  Column Row Layer    Maximum-Flux-Residual          L2-NORM 
          0                 1           2             4    7     1       0.3042060911E-01       4    7    1         0.1603294555E+01      0.3209768087E+01
          0                 2           2             4    7     1      -0.2959114000E-02       4    7    1        -0.1603306981E+00      0.3209701094E+00
          0                 3           2             5    6     1      -0.2053483300E-02       5    8    1        -0.1130655662E+00      0.2742208771E+00
          0                 4           2             4    7     1       0.2310749774E-02       5    8    1         0.1277854909E+00      0.3127131418E+00
          0                 5           1             4    7     1      -0.9196872986E-04       5    8    1        -0.5227674837E-02      0.1279317091E-01

    ------------------------------------------------
       NWT REQUIRED            5 OUTER ITERATIONS 
       AND A TOTAL OF          9 INNER ITERATIONS.
    ------------------------------------------------

 NO OUTPUT CONTROL FOR STRESS PERIOD   35   TIME STEP   16
 
 SOLVING FOR HEAD 
                                                   Max.-Head-Change                         Max.-Flux-Residual
  Residual-Control   Outer-Iter.   Inner-Iter.     Column Row Layer    Maximum-Head-Change  Column Row Layer    Maximum-Flux-Residual          L2-NORM 
          0                 1           2             4    7     1       0.2998973133E-01       4    7    1         0.1580596090E+01      0.3163554110E+01
          0                 2           2             4    7     1      -0.2917201005E-02       4    7    1        -0.1580608279E+00      0.3163494312E+00
          0                 3           2             5    6     1      -0.2055758659E-02       5    8    1        -0.1131857247E+00      0.2745646953E+00
          0                 4           2             4    7     1       0.2311105526E-02       5    8    1         0.1278020318E+00      0.3127571651E+00
          0                 5           1             4    7     1      -0.9198288919E-04       5    8    1        -0.5228351523E-02      0.1279496490E-01

    ------------------------------------------------
       NWT REQUIRED            5 OUTER ITERATIONS 
       AND A TOTAL OF          9 INNER ITERATIONS.
    ------------------------------------------------

 NO OUTPUT CONTROL FOR STRESS PERIOD   35   TIME STEP   17
 
 SOLVING FOR HEAD 
                                                   Max.-Head-Change                         Max.-Flux-Residual
  Residual-Control   Outer-Iter.   Inner-Iter.     Column Row Layer    Maximum-Head-Change  Column Row Layer    Maximum-Flux-Residual          L2-NORM 
          0                 1           2             4    7     1       0.2956495487E-01       4    7    1         0.1558211780E+01      0.3118491626E+01
          0                 2           2             4    7     1      -0.2875881865E-02       4    7    1        -0.1558223925E+00      0.3118438381E+00
          0                 3           2             5    6     1      -0.2057957289E-02       5    8    1        -0.1133016287E+00      0.2748990307E+00
          0                 4           2             4    7     1       0.2311447239E-02       5    8    1         0.1278176962E+00      0.3127990716E+00
          0                 5           1             4    7     1      -0.9199613946E-04       5    8    1        -0.5228972489E-02      0.1279660064E-01

    ------------------------------------------------
       NWT REQUIRED            5 OUTER ITERATIONS 
       AND A TOTAL OF          9 INNER ITERATIONS.
    ------------------------------------------------

 NO OUTPUT CONTROL FOR STRESS PERIOD   35   TIME STEP   18
 
 SOLVING FOR HEAD 
                                                   Max.-Head-Change                         Max.-Flux-Residual
  Residual-Control   Outer-Iter.   Inner-Iter.     Column Row Layer    Maximum-Head-Change  Column Row Layer    Maximum-Flux-Residual          L2-NORM 
          0                 1           2             4    7     1       0.2914617372E-01       4    7    1         0.1536136504E+01      0.3074535016E+01
          0                 2           2             4    7     1      -0.2835145076E-02       4    7    1        -0.1536148161E+00      0.3074486891E+00
          0                 3           2             5    6     1      -0.2060083464E-02       5    8    1        -0.1134136925E+00      0.2752255003E+00
          0                 4           2             4    7     1       0.2311777971E-02       5    8    1         0.1278326670E+00      0.3128394750E+00
          0                 5           1             4    7     1      -0.9200982814E-04       5    8    1        -0.5229614747E-02      0.1279831822E-01

    ------------------------------------------------
       NWT REQUIRED            5 OUTER ITERATIONS 
       AND A TOTAL OF          9 INNER ITERATIONS.
    ------------------------------------------------

 NO OUTPUT CONTROL FOR STRESS PERIOD   35   TIME STEP   19
 
 SOLVING FOR HEAD 
                                                   Max.-Head-Change                         Max.-Flux-Residual
  Residual-Control   Outer-Iter.   Inner-Iter.     Column Row Layer    Maximum-Head-Change  Column Row Layer    Maximum-Flux-Residual          L2-NORM 
          0                 1           2             4    7     1       0.2873367667E-01       4    7    1         0.1514386684E+01      0.3031649798E+01
          0                 2           2             4    7     1      -0.2795019921E-02       4    7    1        -0.1514398049E+00      0.3031606263E+00
          0                 3           2             5    6     1      -0.2062138654E-02       5    8    1        -0.1135219429E+00      0.2755418619E+00
          0                 4           2             4    7     1       0.2312096530E-02       5    8    1         0.1278468940E+00      0.3128779764E+00
          0                 5           1             4    7     1      -0.9202233181E-04       5    8    1        -0.5230186832E-02      0.1279990524E-01

    ------------------------------------------------
       NWT REQUIRED            5 OUTER ITERATIONS 
       AND A TOTAL OF          9 INNER ITERATIONS.
    ------------------------------------------------

 NO OUTPUT CONTROL FOR STRESS PERIOD   35   TIME STEP   20
 
 SOLVING FOR HEAD 
                                                   Max.-Head-Change                         Max.-Flux-Residual
  Residual-Control   Outer-Iter.   Inner-Iter.     Column Row Layer    Maximum-Head-Change  Column Row Layer    Maximum-Flux-Residual          L2-NORM 
          0                 1           2             4    7     1       0.2832719471E-01       4    7    1         0.1492948069E+01      0.2989793532E+01
          0                 2           2             4    7     1      -0.2755478834E-02       4    7    1        -0.1492959173E+00      0.2989235246E+00
          0                 3           2             5    8     1      -0.2064357884E-02       5    8    1        -0.1136416040E+00      0.2758568801E+00
          0                 4           2             4    7     1       0.2312404880E-02       5    8    1         0.1278614769E+00      0.3129153196E+00
          0                 5           1             4    7     1      -0.9203460429E-04       5    8    1        -0.5230793363E-02      0.1280143599E-01

    ------------------------------------------------
       NWT REQUIRED            5 OUTER ITERATIONS 
       AND A TOTAL OF          9 INNER ITERATIONS.
    ------------------------------------------------

 NO OUTPUT CONTROL FOR STRESS PERIOD   35   TIME STEP   21
 
 SOLVING FOR HEAD 
                                                   Max.-Head-Change                         Max.-Flux-Residual
  Residual-Control   Outer-Iter.   Inner-Iter.     Column Row Layer    Maximum-Head-Change  Column Row Layer    Maximum-Flux-Residual          L2-NORM 
          0                 1           2             4    7     1       0.2792674113E-01       4    7    1         0.1471821381E+01      0.2948962133E+01
          0                 2           2             4    7     1      -0.2716526337E-02       4    7    1        -0.1471832225E+00      0.2948927757E+00
          0                 3           2             5    6     1      -0.2066053143E-02       5    8    1        -0.1137269466E+00      0.2761514856E+00
          0                 4           2             4    7     1       0.2312700644E-02       5    8    1         0.1278732085E+00      0.3129501137E+00
          0                 5           1             4    7     1      -0.9204567507E-04       5    8    1        -0.5231233566E-02      0.1280276039E-01

    ------------------------------------------------
       NWT REQUIRED            5 OUTER ITERATIONS 
       AND A TOTAL OF          9 INNER ITERATIONS.
    ------------------------------------------------

 NO OUTPUT CONTROL FOR STRESS PERIOD   35   TIME STEP   22
 
 SOLVING FOR HEAD 
                                                   Max.-Head-Change                         Max.-Flux-Residual
  Residual-Control   Outer-Iter.   Inner-Iter.     Column Row Layer    Maximum-Head-Change  Column Row Layer    Maximum-Flux-Residual          L2-NORM 
          0                 1           2             4    7     1       0.2753257576E-01       4    7    1         0.1451021751E+01      0.2909225804E+01
          0                 2           2             4    7     1      -0.2678184421E-02       4    7    1        -0.1451032340E+00      0.2909194576E+00
          0                 3           2             5    6     1      -0.2067918489E-02       5    8    1        -0.1138202905E+00      0.2764426605E+00
          0                 4           2             4    7     1       0.2312988018E-02       5    8    1         0.1278852222E+00      0.3129839291E+00
          0                 5           1             4    7     1      -0.9205781320E-04       5    8    1        -0.5231764778E-02      0.1280417717E-01

    ------------------------------------------------
       NWT REQUIRED            5 OUTER ITERATIONS 
       AND A TOTAL OF          9 INNER ITERATIONS.
    ------------------------------------------------

 NO OUTPUT CONTROL FOR STRESS PERIOD   35   TIME STEP   23
 
 SOLVING FOR HEAD 
                                                   Max.-Head-Change                         Max.-Flux-Residual
  Residual-Control   Outer-Iter.   Inner-Iter.     Column Row Layer    Maximum-Head-Change  Column Row Layer    Maximum-Flux-Residual          L2-NORM 
          0                 1           2             4    7     1       0.2714454007E-01       4    7    1         0.1430540899E+01      0.2870411496E+01
          0                 2           2             4    7     1      -0.2640438813E-02       4    7    1        -0.1430551265E+00      0.2870383278E+00
          0                 3           2             5    6     1      -0.2069724882E-02       5    8    1        -0.1139110094E+00      0.2767267097E+00
          0                 4           2             4    7     1       0.2313264761E-02       5    8    1         0.1278966472E+00      0.3130163205E+00
          0                 5           1             4    7     1      -0.9206952846E-04       5    8    1        -0.5232271922E-02      0.1280560246E-01

    ------------------------------------------------
       NWT REQUIRED            5 OUTER ITERATIONS 
       AND A TOTAL OF          9 INNER ITERATIONS.
    ------------------------------------------------

 NO OUTPUT CONTROL FOR STRESS PERIOD   35   TIME STEP   24
 
 SOLVING FOR HEAD 
                                                   Max.-Head-Change                         Max.-Flux-Residual
  Residual-Control   Outer-Iter.   Inner-Iter.     Column Row Layer    Maximum-Head-Change  Column Row Layer    Maximum-Flux-Residual          L2-NORM 
          0                 1           2             4    7     1       0.2676273798E-01       4    7    1         0.1410385172E+01      0.2832480668E+01
          0                 2           2             4    7     1      -0.2603299862E-02       4    7    1        -0.1410395474E+00      0.2832455496E+00
          0                 3           2             5    6     1      -0.2071476012E-02       5    8    1        -0.1139991522E+00      0.2770038408E+00
          0                 4           2             4    7     1       0.2313532107E-02       5    8    1         0.1279075567E+00      0.3130473917E+00
          0                 5           1             4    7     1      -0.9207964332E-04       5    8    1        -0.5232688409E-02      0.1281241234E-01

    ------------------------------------------------
       NWT REQUIRED            5 OUTER ITERATIONS 
       AND A TOTAL OF          9 INNER ITERATIONS.
    ------------------------------------------------

 NO OUTPUT CONTROL FOR STRESS PERIOD   35   TIME STEP   25
 
 SOLVING FOR HEAD 
                                                   Max.-Head-Change                         Max.-Flux-Residual
  Residual-Control   Outer-Iter.   Inner-Iter.     Column Row Layer    Maximum-Head-Change  Column Row Layer    Maximum-Flux-Residual          L2-NORM 
          0                 1           2             4    7     1       0.2638686420E-01       4    7    1         0.1390538026E+01      0.2795406250E+01
          0                 2           2             4    7     1      -0.2566737234E-02       4    7    1        -0.1390548083E+00      0.2795383632E+00
          0                 3           2             5    6     1      -0.2073175534E-02       5    8    1        -0.1140849438E+00      0.2772741024E+00
          0                 4           2             4    7     1       0.2313791106E-02       5    8    1         0.1279180109E+00      0.3130772355E+00
          0                 5           1             4    7     1      -0.9208977764E-04       5    8    1        -0.5233106161E-02      0.1280793024E-01

    ------------------------------------------------
       NWT REQUIRED            5 OUTER ITERATIONS 
       AND A TOTAL OF          9 INNER ITERATIONS.
    ------------------------------------------------

 NO OUTPUT CONTROL FOR STRESS PERIOD   35   TIME STEP   26
 
 SOLVING FOR HEAD 
                                                   Max.-Head-Change                         Max.-Flux-Residual
  Residual-Control   Outer-Iter.   Inner-Iter.     Column Row Layer    Maximum-Head-Change  Column Row Layer    Maximum-Flux-Residual          L2-NORM 
          0                 1           2             4    7     1       0.2601715172E-01       4    7    1         0.1371012870E+01      0.2759165824E+01
          0                 2           2             4    7     1      -0.2530773642E-02       4    7    1        -0.1371022471E+00      0.2759146186E+00
          0                 3           2             5    6     1      -0.2074825366E-02       5    8    1        -0.1141684582E+00      0.2775383455E+00
          0                 4           2             4    7     1       0.2314042498E-02       5    8    1         0.1279280599E+00      0.3131061096E+00
          0                 5           1             4    7     1      -0.9209978393E-04       5    8    1        -0.5233517264E-02      0.1280912497E-01

    ------------------------------------------------
       NWT REQUIRED            5 OUTER ITERATIONS 
       AND A TOTAL OF          9 INNER ITERATIONS.
    ------------------------------------------------

 NO OUTPUT CONTROL FOR STRESS PERIOD   35   TIME STEP   27
 
 SOLVING FOR HEAD 
                                                   Max.-Head-Change                         Max.-Flux-Residual
  Residual-Control   Outer-Iter.   Inner-Iter.     Column Row Layer    Maximum-Head-Change  Column Row Layer    Maximum-Flux-Residual          L2-NORM 
          0                 1           2             4    7     1       0.2565354109E-01       4    7    1         0.1351807161E+01      0.2723723319E+01
          0                 2           2             4    7     1      -0.2495403891E-02       4    7    1        -0.1351816525E+00      0.2723705447E+00
          0                 3           2             5    6     1      -0.2076426818E-02       5    8    1        -0.1142496773E+00      0.2777960574E+00
          0                 4           2             4    7     1       0.2314285268E-02       5    8    1         0.1279376501E+00      0.3131337292E+00
          0                 5           1             4    7     1      -0.9210997201E-04       5    8    1        -0.5233939403E-02      0.1281031868E-01

    ------------------------------------------------
       NWT REQUIRED            5 OUTER ITERATIONS 
       AND A TOTAL OF          9 INNER ITERATIONS.
    ------------------------------------------------

 NO OUTPUT CONTROL FOR STRESS PERIOD   35   TIME STEP   28
 
 SOLVING FOR HEAD 
                                                   Max.-Head-Change                         Max.-Flux-Residual
  Residual-Control   Outer-Iter.   Inner-Iter.     Column Row Layer    Maximum-Head-Change  Column Row Layer    Maximum-Flux-Residual          L2-NORM 
          0                 1           2             4    7     1       0.2529584496E-01       4    7    1         0.1332910517E+01      0.2689068052E+01
          0                 2           2             4    7     1      -0.2460609466E-02       4    7    1        -0.1332919649E+00      0.2689052002E+00
          0                 3           2             5    6     1      -0.2077981621E-02       5    8    1        -0.1143287316E+00      0.2780477549E+00
          0                 4           2             4    7     1       0.2314519931E-02       5    8    1         0.1279468107E+00      0.3131603284E+00
          0                 5           1             4    7     1      -0.9211878649E-04       5    8    1        -0.5234284351E-02      0.1281133313E-01

    ------------------------------------------------
       NWT REQUIRED            5 OUTER ITERATIONS 
       AND A TOTAL OF          9 INNER ITERATIONS.
    ------------------------------------------------

 NO OUTPUT CONTROL FOR STRESS PERIOD   35   TIME STEP   29
 
 SOLVING FOR HEAD 
                                                   Max.-Head-Change                         Max.-Flux-Residual
  Residual-Control   Outer-Iter.   Inner-Iter.     Column Row Layer    Maximum-Head-Change  Column Row Layer    Maximum-Flux-Residual          L2-NORM 
          0                 1           2             4    7     1       0.2494413668E-01       4    7    1         0.1314327839E+01      0.2655157018E+01
          0                 2           2             4    7     1      -0.2426398112E-02       4    7    1        -0.1314337070E+00      0.2655142828E+00
          0                 3           2             5    6     1      -0.2079492001E-02       5    8    1        -0.1144056582E+00      0.2782933002E+00
          0                 4           2             4    7     1       0.2314746948E-02       5    8    1         0.1279555739E+00      0.3131858820E+00
          0                 5           1             4    7     1      -0.9212782190E-04       5    8    1        -0.5234642845E-02      0.1281238638E-01

    ------------------------------------------------
       NWT REQUIRED            5 OUTER ITERATIONS 
       AND A TOTAL OF          9 INNER ITERATIONS.
    ------------------------------------------------

 NO OUTPUT CONTROL FOR STRESS PERIOD   35   TIME STEP   30



 STREAM LISTING     PERIOD     35   STEP       30

 LAYER ROW COL. STREAM  RCH.  FLOW INTO     FLOW TO   FLOW OUT OF   OVRLND.     DIRECT     STREAM       STREAM     STREAM     STREAM   STREAMBED  STREAMBED
                SEG.NO.  NO.  STRM. RCH.    AQUIFER    STRM. RCH.    RUNOFF     PRECIP       ET          HEAD       DEPTH      WIDTH   CONDCTNC.   GRADIENT

   1    1    1     1     1    1.3125E+01  1.7336E-01   1.2951E+01  0.000E+00  0.000E+00  0.000E+00  1.09402E+03  9.718E-01  9.699E+00  4.365E-02  1.324E+00
   1    2    2     1     2    1.2951E+01  2.6707E-01   1.2684E+01  0.000E+00  0.000E+00  0.000E+00  1.08903E+03  9.671E-01  9.617E+00  6.732E-02  1.322E+00
   1    3    3     1     3    1.2684E+01  2.2640E-01   1.2458E+01  0.000E+00  0.000E+00  0.000E+00  1.08338E+03  9.616E-01  9.525E+00  5.715E-02  1.321E+00
   1    3    4     1     4    1.2458E+01  2.0736E-01   1.2250E+01  0.000E+00  0.000E+00  0.000E+00  1.07836E+03  9.568E-01  9.443E+00  5.241E-02  1.319E+00
   1    4    5     2     1    1.0250E+01  2.8870E-01   9.9617E+00  0.000E+00  0.000E+00  0.000E+00  1.07264E+03  7.013E-01  1.200E+01  7.800E-02  1.234E+00
   1    5    6     2     2    9.9617E+00  2.2144E-01   9.7403E+00  0.000E+00  0.000E+00  0.000E+00  1.06720E+03  6.906E-01  1.200E+01  6.000E-02  1.230E+00
   1    6    6     2     3    9.7403E+00  2.2088E-01   9.5194E+00  0.000E+00  0.000E+00  0.000E+00  1.06247E+03  6.813E-01  1.200E+01  6.000E-02  1.227E+00
   1    7    6     2     4    9.5194E+00  2.2031E-01   9.2991E+00  0.000E+00  0.000E+00  0.000E+00  1.05775E+03  6.719E-01  1.200E+01  6.000E-02  1.224E+00
   1    8    6     2     5    9.2991E+00  2.1974E-01   9.0793E+00  0.000E+00  0.000E+00  0.000E+00  1.05302E+03  6.624E-01  1.200E+01  6.000E-02  1.221E+00
   1    3    5     3     1    2.0000E+00  2.8252E-01   1.7175E+00  0.000E+00  0.000E+00  0.000E+00  1.07555E+03  1.909E+00  9.636E+00  7.227E-02  1.955E+00
   1    3    6     3     2    1.7175E+00  2.4905E-01   1.4684E+00  0.000E+00  0.000E+00  0.000E+00  1.07264E+03  1.727E+00  8.909E+00  6.682E-02  1.864E+00
   1    3    7     3     3    1.4684E+00  1.9718E-01   1.2712E+00  0.000E+00  0.000E+00  0.000E+00  1.06987E+03  1.555E+00  8.218E+00  5.547E-02  1.777E+00
   1    4    8     3     4    1.2712E+00  2.2567E-01   1.0456E+00  0.000E+00  0.000E+00  0.000E+00  1.06682E+03  1.364E+00  7.455E+00  6.709E-02  1.682E+00
   1    5    8     3     5    1.0456E+00  1.5790E-01   8.8768E-01  0.000E+00  0.000E+00  0.000E+00  1.06362E+03  1.164E+00  6.655E+00  4.991E-02  1.582E+00
   1    6    8     3     6    8.8768E-01  5.5980E-02   8.3170E-01  0.000E+00  0.000E+00  0.000E+00  1.06158E+03  1.036E+00  6.145E+00  1.844E-02  1.518E+00
   1    5   10     4     1    1.0000E+01  9.0919E-02   9.9091E+00  0.000E+00  0.000E+00  0.000E+00  1.07836E+03  6.368E-01  1.000E+01  2.500E-02  1.212E+00
   1    5    9     4     2    9.9091E+00  1.8158E-01   9.7275E+00  0.000E+00  0.000E+00  0.000E+00  1.07154E+03  6.315E-01  1.000E+01  5.000E-02  1.211E+00
   1    6    8     4     3    9.7275E+00  1.2689E-01   9.6006E+00  0.000E+00  0.000E+00  0.000E+00  1.06381E+03  6.256E-01  1.000E+01  3.500E-02  1.209E+00
   1    6    8     5     1    1.0432E+01  2.2686E-01   1.0205E+01  0.000E+00  0.000E+00  0.000E+00  1.05868E+03  6.790E-01  1.542E+01  6.166E-02  1.226E+00
   1    7    7     5     2    1.0205E+01  2.7894E-01   9.9265E+00  0.000E+00  0.000E+00  0.000E+00  1.05417E+03  6.732E-01  1.519E+01  7.594E-02  1.224E+00
   1    8    7     5     3    9.9265E+00  1.9221E-01   9.7343E+00  0.000E+00  0.000E+00  0.000E+00  1.04992E+03  6.676E-01  1.497E+01  5.241E-02  1.223E+00
   1    8    6     5     4    9.7343E+00  1.3577E-01   9.5985E+00  0.000E+00  0.000E+00  0.000E+00  1.04691E+03  6.637E-01  1.482E+01  3.706E-02  1.221E+00
   1    9    6     6     1    1.7958E+01  2.3983E-01   1.7718E+01  0.000E+00  0.000E+00  0.000E+00  1.04372E+03  9.972E-01  1.200E+01  6.000E-02  1.332E+00
   1   10    7     6     2    1.7718E+01  2.3935E-01   1.7479E+01  0.000E+00  0.000E+00  0.000E+00  1.03917E+03  9.891E-01  1.200E+01  6.000E-02  1.330E+00
   1   11    7     6     3    1.7479E+01  2.3886E-01   1.7240E+01  0.000E+00  0.000E+00  0.000E+00  1.03462E+03  9.811E-01  1.200E+01  6.000E-02  1.327E+00
   1   12    7     6     4    1.7240E+01  2.3838E-01   1.7002E+01  0.000E+00  0.000E+00  0.000E+00  1.03006E+03  9.729E-01  1.200E+01  6.000E-02  1.324E+00
   1   13    7     6     5    1.7002E+01  5.3875E-03   1.6996E+01  0.000E+00  0.000E+00  0.000E+00  1.02688E+03  9.688E-01  1.200E+01  2.400E-02  7.483E-02
   1   14    9     7     1    1.5000E+02  1.3833E+00   1.4862E+02  0.000E+00  0.000E+00  0.000E+00  1.03987E+03  2.288E+00  5.529E+01  5.593E-01  8.244E-01
   1   13    8     7     2    1.4862E+02  1.9752E+00   1.4664E+02  0.000E+00  0.000E+00  0.000E+00  1.03478E+03  2.279E+00  5.525E+01  6.147E-01  1.071E+00
   1   13    7     7     3    1.4664E+02  1.6946E+00   1.4495E+02  0.000E+00  0.000E+00  0.000E+00  1.02969E+03  2.269E+00  5.521E+01  5.584E-01  1.012E+00
   1   13    6     8     1    1.6194E+02  1.0924E+00   1.6085E+02  0.000E+00  0.000E+00  0.000E+00  1.02477E+03  2.895E+00  4.198E+01  4.278E-01  8.512E-01
   1   13    5     8     2    1.6085E+02  3.3527E-01   1.6052E+02  0.000E+00  0.000E+00  0.000E+00  1.01852E+03  2.890E+00  4.191E+01  4.271E-01  2.617E-01
   1   13    4     8     3    1.6052E+02 -1.8942E+00   1.6241E+02  0.000E+00  0.000E+00  0.000E+00  1.01227E+03  2.896E+00  4.199E+01  4.279E+00 -1.476E-01
   1   13    3     8     4    1.6241E+02 -3.3684E+00   1.6578E+02  0.000E+00  0.000E+00  0.000E+00  1.00604E+03  2.913E+00  4.224E+01  4.305E+00 -2.608E-01
   1   13    2     8     5    1.6578E+02 -2.4916E+00   1.6827E+02  0.000E+00  0.000E+00  0.000E+00  9.99808E+02  2.933E+00  4.252E+01  4.333E+00 -1.917E-01
   1   13    1     8     6    1.6827E+02 -1.9423E+00   1.7021E+02  0.000E+00  0.000E+00  0.000E+00  9.94822E+02  2.947E+00  4.274E+01  2.613E+00 -2.478E-01
   1    8    6     9     1    7.1968E-01  0.0000E+00   7.1968E-01  0.000E+00  0.000E+00  0.000E+00  1.07922E+03  4.673E-01  4.000E+00  0.000E+00  1.156E+00
   1    8    5     9     2    7.1968E-01  0.0000E+00   7.1968E-01  0.000E+00  0.000E+00  0.000E+00  1.07872E+03  4.673E-01  4.000E+00  0.000E+00  1.156E+00





UNSATURATED ZONE PACKAGE VOLUMETRIC BUDGET FOR  TIME STEP    30 STRESS PERIOD   35
  ------------------------------------------------------------------------------



     CUMULATIVE VOLUMES      L**3       RATES FOR THIS TIME STEP      L**3/T
     ------------------                 ------------------------

           IN:                                      IN:
           ---                                      ---
        INFILTRATION =  1283666802.7053          INFILTRATION =           1.5672

          OUT:                                     OUT:
          ----                                     ----
              UZF ET =  1278768956.9834                UZF ET =           1.5675
        UZF RECHARGE =       73224.0000          UZF RECHARGE =       0.0000E+00

            IN - OUT =     4824621.7220              IN - OUT =      -3.0908E-04

          STORAGE:                                 STORAGE:
          --------                                 --------
      STORAGE CHANGE =     4824624.8460        STORAGE CHANGE =      -3.0900E-04

 PERCENT DISCREPANCY IS DIFFERENCE BETWEEN IN-OUT MINUS CHANGE IN STORAGE
 DIVIDED BY THE AVERAGE OF IN AND OUT TIMES 100

 PERCENT DISCREPANCY =           0.00     PERCENT DISCREPANCY =          -0.00






1
  VOLUMETRIC BUDGET FOR AGRICULTURAL FIELDS AT  END OF TIME STEP   30, STRESS PERIOD  35
  ------------------------------------------------------------------------------

     CUMULATIVE VOLUMES      L**3       RATES FOR THIS TIME STEP      L**3/T
     ------------------                 ------------------------

           IN:                                      IN:
           ---                                      ---
           AG WELLS      =   605950784.0000             AG WELLS      =           0.0000
      DIVERSION SEGMENTS =   601916864.0000        DIVERSION SEGMENTS =           0.7197
           GW IRRIGATION =           0.0000             GW IRRIGATION =           0.0000
           SW IRRIGATION =           0.0000             SW IRRIGATION =           0.0000
        SYSTEM LOSSES GW =           0.0000          SYSTEM LOSSES GW =           0.0000
        SYSTEM LOSSES SW =           0.0000          SYSTEM LOSSES SW =           0.0000

                TOTAL IN =  1207867648.0000                  TOTAL IN =           0.7197

          OUT:                                     OUT:
          ----                                     ----
           AG WELLS      =           0.0000             AG WELLS      =           0.0000
      DIVERSION SEGMENTS =           0.0000        DIVERSION SEGMENTS =           0.0000
           GW IRRIGATION =   605950784.0000             GW IRRIGATION =           0.0000
           SW IRRIGATION =   601926656.0000             SW IRRIGATION =           0.7197
        SYSTEM LOSSES GW =           0.0000          SYSTEM LOSSES GW =           0.0000
        SYSTEM LOSSES SW =           0.0000          SYSTEM LOSSES SW =           0.0000

               TOTAL OUT =  1207877376.0000                 TOTAL OUT =           0.7197

                IN - OUT =       -9728.0000                  IN - OUT =      -1.4365E-05

     PERCENT DISCREPANCY =          -0.00         PERCENT DISCREPANCY =          -0.00



1
  VOLUMETRIC BUDGET FOR ENTIRE MODEL AT END OF TIME STEP   30, STRESS PERIOD  35
  ------------------------------------------------------------------------------

     CUMULATIVE VOLUMES      L**3       RATES FOR THIS TIME STEP      L**3/T
     ------------------                 ------------------------

           IN:                                      IN:
           ---                                      ---
             STORAGE     =   865173824.0000               STORAGE     =           5.3682
       CONSTANT HEAD     =           0.0000         CONSTANT HEAD     =           0.0000
     HEAD DEP BOUNDS     =    25801096.0000       HEAD DEP BOUNDS     =           0.2890
      STREAM LEAKAGE     =  1057388608.0000        STREAM LEAKAGE     =          11.8893
        UZF RECHARGE     =       73223.9531          UZF RECHARGE     =           0.0000
               GW ET     =           0.0000                 GW ET     =           0.0000
     SURFACE LEAKAGE     =           0.0000       SURFACE LEAKAGE     =           0.0000
           AG WELLS      =           0.0000             AG WELLS      =           0.0000

                TOTAL IN =  1948436736.0000                  TOTAL IN =          17.5465

          OUT:                                     OUT:
          ----                                     ----
             STORAGE     =   410445600.0000               STORAGE     =           7.5620
       CONSTANT HEAD     =           0.0000         CONSTANT HEAD     =           0.0000
     HEAD DEP BOUNDS     =    25763650.0000       HEAD DEP BOUNDS     =           0.2875
      STREAM LEAKAGE     =   906287104.0000        STREAM LEAKAGE     =           9.6965
        UZF RECHARGE     =           0.0000          UZF RECHARGE     =           0.0000
               GW ET     =           0.0000                 GW ET     =           0.0000
     SURFACE LEAKAGE     =           0.0000       SURFACE LEAKAGE     =           0.0000
           AG WELLS      =   605950784.0000             AG WELLS      =           0.0000

               TOTAL OUT =  1948447232.0000                 TOTAL OUT =          17.5461

                IN - OUT =      -10496.0000                  IN - OUT =       4.0245E-04

     PERCENT DISCREPANCY =          -0.00         PERCENT DISCREPANCY =           0.00






         TIME SUMMARY AT END OF TIME STEP   30 IN STRESS PERIOD   35
                    SECONDS     MINUTES      HOURS       DAYS        YEARS
                    -----------------------------------------------------------
   TIME STEP LENGTH  87667.      1461.1      24.352      1.0147     2.77799E-03
 STRESS PERIOD TIME 2.63000E+06  43833.      730.56      30.440     8.33397E-02
         TOTAL TIME 8.95061E+07 1.49177E+06  24863.      1036.0      2.8363    
1
1
                            STRESS PERIOD NO.   36, LENGTH =   2630000.    
                            -----------------------------------------------

                              NUMBER OF TIME STEPS =    30

                               MULTIPLIER FOR DELT =     1.000

                            INITIAL TIME STEP SIZE =   87666.66    

 REUSING NON-PARAMETER GHB CELLS FROM LAST STRESS PERIOD

      2 GHB CELLS

 REUSING STREAM SEGMENT DATA FROM LAST STRESS PERIOD



            AREAL INFILTRATION RATE
 READING ON UNIT   19 WITH FORMAT: (FREE)              

            1           2           3           4           5           6           7           8           9          10
 ........................................................................................................................
   1   1.0000E-10  2.0000E-10   0.000       0.000       0.000       0.000       0.000       0.000       0.000       0.000    
   2   2.0000E-10  1.0000E-10  2.0000E-10   0.000       0.000      8.0000E-10  8.0000E-10  5.0000E-10   0.000       0.000    
   3    0.000      5.0000E-10  1.0000E-10  1.0000E-10  8.0000E-10  8.0000E-10  5.0000E-10  5.0000E-10   0.000       0.000    
   4   8.0000E-10  5.0000E-10  1.0000E-10  1.0000E-10  1.0000E-10  1.0000E-10  1.0000E-10  1.0000E-10  2.0000E-10   0.000    
   5   8.0000E-10  5.0000E-10  1.0000E-10  1.0000E-10  1.0000E-10  1.0000E-10  1.0000E-10  1.0000E-10  1.0000E-10  1.0000E-10
   6   8.0000E-10  5.0000E-10  5.0000E-10  2.0000E-10  2.0000E-10  1.0000E-10  1.0000E-10  1.0000E-10  1.0000E-10  5.0000E-10
   7   8.0000E-10  5.0000E-10  5.0000E-10  2.0000E-10  2.0000E-10  1.0000E-10  1.0000E-10  2.0000E-10  2.0000E-10   0.000    
   8    0.000      5.0000E-10  5.0000E-10  2.0000E-10  2.0000E-10  1.0000E-10  1.0000E-10  2.0000E-10  5.0000E-10   0.000    
   9    0.000      5.0000E-10  5.0000E-10  2.0000E-10  2.0000E-10  1.0000E-10  1.0000E-10  2.0000E-10  5.0000E-10   0.000    
  10    0.000      5.0000E-10  5.0000E-10  2.0000E-10  2.0000E-10  1.0000E-10  1.0000E-10  2.0000E-10  5.0000E-10  8.0000E-10
  11    0.000      1.0000E-10  1.0000E-10  1.0000E-10  1.0000E-10  1.0000E-10  1.0000E-10  2.0000E-10  5.0000E-10   0.000    
  12   1.0000E-10  1.0000E-10  1.0000E-10  1.0000E-10  1.0000E-10  1.0000E-10  1.0000E-10  1.0000E-10  2.0000E-10   0.000    
  13   1.0000E-10  1.0000E-10  2.0000E-10  2.0000E-10  2.0000E-10  2.0000E-10  2.0000E-10  1.0000E-10  1.0000E-10   0.000    
  14    0.000      2.0000E-10  5.0000E-10  5.0000E-10  5.0000E-10  5.0000E-10  5.0000E-10  2.0000E-10  1.0000E-10   0.000    
  15    0.000       0.000      8.0000E-10  8.0000E-10  8.0000E-10  8.0000E-10   0.000       0.000       0.000       0.000    

                  ET RATE =  5.000000E-10

 USING ET EXTINCTION DEPTH FROM PREVIOUS STRESS PERIOD. CURRENT PERIOD IS:      36

 USING EXTINCTION WATER CONTENT FROM PREVIOUS STRESS PERIOD. CURRENT PERIOD IS:      36

 USING AIR ENTRY PRESSURE FROM PREVIOUS STRESS PERIOD. CURRENT PERIOD IS:      36

 USING ROOT PRESSURE HEAD FROM PREVIOUS STRESS PERIOD. CURRENT PERIOD IS:      36

 USING ROOT ACTIVITY FROM PREVIOUS STRESS PERIOD. CURRENT PERIOD IS:      36

 PROCESSING AG STRESS PERIOD DATA

 READING AG STRESS PERIOD DATA

 READING IRRIGATION SEGMENT

 READING IRRIGATION WELL

 READING SUPPLEMENTAL WELL

 END PROCESSING AG STRESS PERIOD DATA OPTIONS
 
 SOLVING FOR HEAD 
                                                   Max.-Head-Change                         Max.-Flux-Residual
  Residual-Control   Outer-Iter.   Inner-Iter.     Column Row Layer    Maximum-Head-Change  Column Row Layer    Maximum-Flux-Residual          L2-NORM 
          0                 1           2             4    7     1       0.2459821336E-01       4    7    1         0.1296048310E+01      0.2621976259E+01
          0                 2           2             4    7     1      -0.2392748265E-02       4    7    1        -0.1296056990E+00      0.2621962891E+00
          0                 3           2             4    7     1       0.1629371608E-03       4    7    1         0.9072394643E-02      0.1835354967E-01
          0                 4           1             4    7     1      -0.6483422788E-05       4    7    1        -0.3710615013E-03      0.7506547520E-03

    ------------------------------------------------
       NWT REQUIRED            4 OUTER ITERATIONS 
       AND A TOTAL OF          7 INNER ITERATIONS.
    ------------------------------------------------

 NO OUTPUT CONTROL FOR STRESS PERIOD   36   TIME STEP    1
 
 SOLVING FOR HEAD 
                                                   Max.-Head-Change                         Max.-Flux-Residual
  Residual-Control   Outer-Iter.   Inner-Iter.     Column Row Layer    Maximum-Head-Change  Column Row Layer    Maximum-Flux-Residual          L2-NORM 
          0                 1           2             4    7     1       0.2425823658E-01       4    7    1         0.1278082968E+01      0.2595180672E+01
          0                 2           2             4    7     1      -0.2359677471E-02       4    7    1        -0.1278091431E+00      0.2595126716E+00
          0                 3           2             4    7     1       0.1606851655E-03       4    7    1         0.8946635875E-02      0.1816531540E-01
          0                 4           1             4    7     1      -0.6393813681E-05       4    7    1        -0.3659179665E-03      0.7429160159E-03

    ------------------------------------------------
       NWT REQUIRED            4 OUTER ITERATIONS 
       AND A TOTAL OF          7 INNER ITERATIONS.
    ------------------------------------------------

 NO OUTPUT CONTROL FOR STRESS PERIOD   36   TIME STEP    2
 
 SOLVING FOR HEAD 
                                                   Max.-Head-Change                         Max.-Flux-Residual
  Residual-Control   Outer-Iter.   Inner-Iter.     Column Row Layer    Maximum-Head-Change  Column Row Layer    Maximum-Flux-Residual          L2-NORM 
          0                 1           2             4    7     1       0.2392386101E-01       4    7    1         0.1260411693E+01      0.2563929291E+01
          0                 2           2             4    7     1      -0.2327151529E-02       4    7    1        -0.1260419942E+00      0.2563868223E+00
          0                 3           2             4    7     1       0.1584702722E-03       4    7    1         0.8822935592E-02      0.1794641900E-01
          0                 4           1             4    7     1      -0.6305680970E-05       4    7    1        -0.3608586076E-03      0.7339794277E-03

    ------------------------------------------------
       NWT REQUIRED            4 OUTER ITERATIONS 
       AND A TOTAL OF          7 INNER ITERATIONS.
    ------------------------------------------------

 NO OUTPUT CONTROL FOR STRESS PERIOD   36   TIME STEP    3
 
 SOLVING FOR HEAD 
                                                   Max.-Head-Change                         Max.-Flux-Residual
  Residual-Control   Outer-Iter.   Inner-Iter.     Column Row Layer    Maximum-Head-Change  Column Row Layer    Maximum-Flux-Residual          L2-NORM 
          0                 1           2             4    7     1       0.2359515483E-01       4    7    1         0.1243038144E+01      0.2532561156E+01
          0                 2           2             4    7     1      -0.2295177071E-02       4    7    1        -0.1243046184E+00      0.2532508080E+00
          0                 3           2             4    7     1       0.1562929335E-03       4    7    1         0.8701319448E-02      0.1772699783E-01
          0                 4           1             4    7     1      -0.6219042730E-05       4    7    1        -0.3558844994E-03      0.7249968551E-03

    ------------------------------------------------
       NWT REQUIRED            4 OUTER ITERATIONS 
       AND A TOTAL OF          7 INNER ITERATIONS.
    ------------------------------------------------

 NO OUTPUT CONTROL FOR STRESS PERIOD   36   TIME STEP    4
 
 SOLVING FOR HEAD 
                                                   Max.-Head-Change                         Max.-Flux-Residual
  Residual-Control   Outer-Iter.   Inner-Iter.     Column Row Layer    Maximum-Head-Change  Column Row Layer    Maximum-Flux-Residual          L2-NORM 
          0                 1           2             4    7     1       0.2327217395E-01       4    7    1         0.1225965855E+01      0.2501865925E+01
          0                 2           2             4    7     1      -0.2263759535E-02       4    7    1        -0.1225973691E+00      0.2501819796E+00
          0                 3           2             4    7     1       0.1541535186E-03       4    7    1         0.8581812127E-02      0.1751227302E-01
          0                 4           1             4    7     1      -0.6133913353E-05       4    7    1        -0.3509966398E-03      0.7162036631E-03

    ------------------------------------------------
       NWT REQUIRED            4 OUTER ITERATIONS 
       AND A TOTAL OF          7 INNER ITERATIONS.
    ------------------------------------------------

 NO OUTPUT CONTROL FOR STRESS PERIOD   36   TIME STEP    5
 
 SOLVING FOR HEAD 
                                                   Max.-Head-Change                         Max.-Flux-Residual
  Residual-Control   Outer-Iter.   Inner-Iter.     Column Row Layer    Maximum-Head-Change  Column Row Layer    Maximum-Flux-Residual          L2-NORM 
          0                 1           2             4    7     1       0.2295456680E-01       4    7    1         0.1209175787E+01      0.2471823167E+01
          0                 2           2             4    7     1      -0.2232864724E-02       4    7    1        -0.1209183423E+00      0.2471782942E+00
          0                 3           2             4    7     1       0.1520496992E-03       4    7    1         0.8464280388E-02      0.1730208406E-01
          0                 4           1             4    7     1      -0.6050200391E-05       4    7    1        -0.3461895794E-03      0.7076229023E-03

    ------------------------------------------------
       NWT REQUIRED            4 OUTER ITERATIONS 
       AND A TOTAL OF          7 INNER ITERATIONS.
    ------------------------------------------------

 NO OUTPUT CONTROL FOR STRESS PERIOD   36   TIME STEP    6
 
 SOLVING FOR HEAD 
                                                   Max.-Head-Change                         Max.-Flux-Residual
  Residual-Control   Outer-Iter.   Inner-Iter.     Column Row Layer    Maximum-Head-Change  Column Row Layer    Maximum-Flux-Residual          L2-NORM 
          0                 1           2             4    7     1       0.2264252618E-01       4    7    1         0.1192678964E+01      0.2442408816E+01
          0                 2           2             4    7     1      -0.2202511392E-02       4    7    1        -0.1192686405E+00      0.2442373743E+00
          0                 3           2             4    7     1       0.1499827531E-03       4    7    1         0.8348801406E-02      0.1709622742E-01
          0                 4           1             4    7     1      -0.5967955075E-05       4    7    1        -0.3414665011E-03      0.6992083332E-03

    ------------------------------------------------
       NWT REQUIRED            4 OUTER ITERATIONS 
       AND A TOTAL OF          7 INNER ITERATIONS.
    ------------------------------------------------

 NO OUTPUT CONTROL FOR STRESS PERIOD   36   TIME STEP    7
 
 SOLVING FOR HEAD 
                                                   Max.-Head-Change                         Max.-Flux-Residual
  Residual-Control   Outer-Iter.   Inner-Iter.     Column Row Layer    Maximum-Head-Change  Column Row Layer    Maximum-Flux-Residual          L2-NORM 
          0                 1           2             4    7     1       0.2233582665E-01       4    7    1         0.1176463443E+01      0.2413599676E+01
          0                 2           2             4    7     1      -0.2172677714E-02       4    7    1        -0.1176470693E+00      0.2413655455E+00
          0                 3           2             4    7     1       0.1479511928E-03       4    7    1         0.8235291551E-02      0.1689526442E-01
          0                 4           1             4    7     1      -0.5887117194E-05       4    7    1        -0.3368239350E-03      0.6910061763E-03

    ------------------------------------------------
       NWT REQUIRED            4 OUTER ITERATIONS 
       AND A TOTAL OF          7 INNER ITERATIONS.
    ------------------------------------------------

 NO OUTPUT CONTROL FOR STRESS PERIOD   36   TIME STEP    8
 
 SOLVING FOR HEAD 
                                                   Max.-Head-Change                         Max.-Flux-Residual
  Residual-Control   Outer-Iter.   Inner-Iter.     Column Row Layer    Maximum-Head-Change  Column Row Layer    Maximum-Flux-Residual          L2-NORM 
          0                 1           2             4    7     1       0.2203452050E-01       4    7    1         0.1160532157E+01      0.2385385914E+01
          0                 2           2             4    7     1      -0.2143368462E-02       4    7    1        -0.1160539222E+00      0.2385359297E+00
          0                 3           2             4    7     1       0.1459553439E-03       4    7    1         0.8123771378E-02      0.1669723301E-01
          0                 4           1             4    7     1      -0.5807700218E-05       4    7    1        -0.3322627397E-03      0.6828973133E-03

    ------------------------------------------------
       NWT REQUIRED            4 OUTER ITERATIONS 
       AND A TOTAL OF          7 INNER ITERATIONS.
    ------------------------------------------------

 NO OUTPUT CONTROL FOR STRESS PERIOD   36   TIME STEP    9
 
 SOLVING FOR HEAD 
                                                   Max.-Head-Change                         Max.-Flux-Residual
  Residual-Control   Outer-Iter.   Inner-Iter.     Column Row Layer    Maximum-Head-Change  Column Row Layer    Maximum-Flux-Residual          L2-NORM 
          0                 1           2             4    7     1       0.2173838131E-01       4    7    1         0.1144873206E+01      0.2357703089E+01
          0                 2           2             4    7     1      -0.2114561925E-02       4    7    1        -0.1144880089E+00      0.2357679501E+00
          0                 3           2             4    7     1       0.1439937282E-03       4    7    1         0.8014157570E-02      0.1650347063E-01
          0                 4           1             4    7     1      -0.5729645663E-05       4    7    1        -0.3277795363E-03      0.6749639751E-03

    ------------------------------------------------
       NWT REQUIRED            4 OUTER ITERATIONS 
       AND A TOTAL OF          7 INNER ITERATIONS.
    ------------------------------------------------

 NO OUTPUT CONTROL FOR STRESS PERIOD   36   TIME STEP   10
 
 SOLVING FOR HEAD 
                                                   Max.-Head-Change                         Max.-Flux-Residual
  Residual-Control   Outer-Iter.   Inner-Iter.     Column Row Layer    Maximum-Head-Change  Column Row Layer    Maximum-Flux-Residual          L2-NORM 
          0                 1           2             4    7     1       0.2144746131E-01       4    7    1         0.1129489462E+01      0.2330585783E+01
          0                 2           2             4    7     1      -0.2086263081E-02       4    7    1        -0.1129496169E+00      0.2330565204E+00
          0                 3           2             4    7     1       0.1420666843E-03       4    7    1         0.7906470253E-02      0.1631372372E-01
          0                 4           1             4    7     1      -0.5652966766E-05       4    7    1        -0.3233751047E-03      0.6672202094E-03

    ------------------------------------------------
       NWT REQUIRED            4 OUTER ITERATIONS 
       AND A TOTAL OF          7 INNER ITERATIONS.
    ------------------------------------------------

 NO OUTPUT CONTROL FOR STRESS PERIOD   36   TIME STEP   11
 
 SOLVING FOR HEAD 
                                                   Max.-Head-Change                         Max.-Flux-Residual
  Residual-Control   Outer-Iter.   Inner-Iter.     Column Row Layer    Maximum-Head-Change  Column Row Layer    Maximum-Flux-Residual          L2-NORM 
          0                 1           2             4    7     1       0.2116153355E-01       4    7    1         0.1114369009E+01      0.2303999753E+01
          0                 2           2             4    7     1      -0.2058449851E-02       4    7    1        -0.1114375544E+00      0.2303981656E+00
          0                 3           2             4    7     1       0.1401727089E-03       4    7    1         0.7800625997E-02      0.1612768523E-01
          0                 4           1             4    7     1      -0.5577603664E-05       4    7    1        -0.3190460707E-03      0.6596102017E-03

    ------------------------------------------------
       NWT REQUIRED            4 OUTER ITERATIONS 
       AND A TOTAL OF          7 INNER ITERATIONS.
    ------------------------------------------------

 NO OUTPUT CONTROL FOR STRESS PERIOD   36   TIME STEP   12
 
 SOLVING FOR HEAD 
                                                   Max.-Head-Change                         Max.-Flux-Residual
  Residual-Control   Outer-Iter.   Inner-Iter.     Column Row Layer    Maximum-Head-Change  Column Row Layer    Maximum-Flux-Residual          L2-NORM 
          0                 1           2             4    7     1       0.2088078166E-01       4    7    1         0.1099522027E+01      0.2277943536E+01
          0                 2           2             4    7     1      -0.2031140099E-02       4    7    1        -0.1099528394E+00      0.2277927771E+00
          0                 3           2             4    7     1       0.1383130185E-03       4    7    1         0.7696696058E-02      0.1594531312E-01
          0                 4           1             4    7     1      -0.5503604823E-05       4    7    1        -0.3147953310E-03      0.6521549450E-03

    ------------------------------------------------
       NWT REQUIRED            4 OUTER ITERATIONS 
       AND A TOTAL OF          7 INNER ITERATIONS.
    ------------------------------------------------

 NO OUTPUT CONTROL FOR STRESS PERIOD   36   TIME STEP   13
 
 SOLVING FOR HEAD 
                                                   Max.-Head-Change                         Max.-Flux-Residual
  Residual-Control   Outer-Iter.   Inner-Iter.     Column Row Layer    Maximum-Head-Change  Column Row Layer    Maximum-Flux-Residual          L2-NORM 
          0                 1           2             4    7     1       0.2060483785E-01       4    7    1         0.1084928774E+01      0.2252394068E+01
          0                 2           2             4    7     1      -0.2004298048E-02       4    7    1        -0.1084934977E+00      0.2252379968E+00
          0                 3           2             4    7     1       0.1364851766E-03       4    7    1         0.7594542248E-02      0.1576649083E-01
          0                 4           1             4    7     1      -0.5430873422E-05       4    7    1        -0.3106172342E-03      0.6448356807E-03

    ------------------------------------------------
       NWT REQUIRED            4 OUTER ITERATIONS 
       AND A TOTAL OF          7 INNER ITERATIONS.
    ------------------------------------------------

 NO OUTPUT CONTROL FOR STRESS PERIOD   36   TIME STEP   14
 
 SOLVING FOR HEAD 
                                                   Max.-Head-Change                         Max.-Flux-Residual
  Residual-Control   Outer-Iter.   Inner-Iter.     Column Row Layer    Maximum-Head-Change  Column Row Layer    Maximum-Flux-Residual          L2-NORM 
          0                 1           2             4    7     1       0.2033375435E-01       4    7    1         0.1070592129E+01      0.2227346997E+01
          0                 2           2             4    7     1      -0.1977928779E-02       4    7    1        -0.1070598172E+00      0.2227334623E+00
          0                 3           2             4    7     1       0.1346895299E-03       4    7    1         0.7494184732E-02      0.1559118625E-01
          0                 4           1             4    7     1      -0.5359422930E-05       4    7    1        -0.3065126145E-03      0.6376630131E-03

    ------------------------------------------------
       NWT REQUIRED            4 OUTER ITERATIONS 
       AND A TOTAL OF          7 INNER ITERATIONS.
    ------------------------------------------------

 NO OUTPUT CONTROL FOR STRESS PERIOD   36   TIME STEP   15
 
 SOLVING FOR HEAD 
                                                   Max.-Head-Change                         Max.-Flux-Residual
  Residual-Control   Outer-Iter.   Inner-Iter.     Column Row Layer    Maximum-Head-Change  Column Row Layer    Maximum-Flux-Residual          L2-NORM 
          0                 1           2             4    7     1       0.2006730429E-01       4    7    1         0.1056500165E+01      0.2202767626E+01
          0                 2           2             4    7     1      -0.1952010225E-02       4    7    1        -0.1056506053E+00      0.2202756534E+00
          0                 3           2             4    7     1       0.1329245745E-03       4    7    1         0.7395539991E-02      0.1541915766E-01
          0                 4           1             4    7     1      -0.5289193828E-05       4    7    1        -0.3024780387E-03      0.6306375693E-03

    ------------------------------------------------
       NWT REQUIRED            4 OUTER ITERATIONS 
       AND A TOTAL OF          7 INNER ITERATIONS.
    ------------------------------------------------

 NO OUTPUT CONTROL FOR STRESS PERIOD   36   TIME STEP   16
 
 SOLVING FOR HEAD 
                                                   Max.-Head-Change                         Max.-Flux-Residual
  Residual-Control   Outer-Iter.   Inner-Iter.     Column Row Layer    Maximum-Head-Change  Column Row Layer    Maximum-Flux-Residual          L2-NORM 
          0                 1           2             4    7     1       0.1980567492E-01       4    7    1         0.1042663073E+01      0.2178672608E+01
          0                 2           2             4    7     1      -0.1926560597E-02       4    7    1        -0.1042668810E+00      0.2178662609E+00
          0                 3           2             4    7     1       0.1311915514E-03       4    7    1         0.7298679386E-02      0.1525049578E-01
          0                 4           1             4    7     1      -0.5220235273E-05       4    7    1        -0.2985164394E-03      0.6237416811E-03

    ------------------------------------------------
       NWT REQUIRED            4 OUTER ITERATIONS 
       AND A TOTAL OF          7 INNER ITERATIONS.
    ------------------------------------------------

 NO OUTPUT CONTROL FOR STRESS PERIOD   36   TIME STEP   17
 
 SOLVING FOR HEAD 
                                                   Max.-Head-Change                         Max.-Flux-Residual
  Residual-Control   Outer-Iter.   Inner-Iter.     Column Row Layer    Maximum-Head-Change  Column Row Layer    Maximum-Flux-Residual          L2-NORM 
          0                 1           2             4    7     1       0.1954863490E-01       4    7    1         0.1029068608E+01      0.2155026090E+01
          0                 2           2             4    7     1      -0.1901557395E-02       4    7    1        -0.1029074198E+00      0.2155017112E+00
          0                 3           2             4    7     1       0.1294889281E-03       4    7    1         0.7203517207E-02      0.1508498927E-01
          0                 4           1             4    7     1      -0.5152486019E-05       4    7    1        -0.2946242971E-03      0.6169567307E-03

    ------------------------------------------------
       NWT REQUIRED            4 OUTER ITERATIONS 
       AND A TOTAL OF          7 INNER ITERATIONS.
    ------------------------------------------------

 NO OUTPUT CONTROL FOR STRESS PERIOD   36   TIME STEP   18
 
 SOLVING FOR HEAD 
                                                   Max.-Head-Change                         Max.-Flux-Residual
  Residual-Control   Outer-Iter.   Inner-Iter.     Column Row Layer    Maximum-Head-Change  Column Row Layer    Maximum-Flux-Residual          L2-NORM 
          0                 1           2             4    7     1       0.1929622986E-01       4    7    1         0.1015719412E+01      0.2131827085E+01
          0                 2           2             4    7     1      -0.1877005055E-02       4    7    1        -0.1015724859E+00      0.2131819174E+00
          0                 3           1             4    7     1       0.1278170095E-03       4    7    1         0.7110071931E-02      0.1492262267E-01
          0                 4           1             4    7     1      -0.5085961493E-05       4    7    1        -0.2908023748E-03      0.6103313613E-03

    ------------------------------------------------
       NWT REQUIRED            4 OUTER ITERATIONS 
       AND A TOTAL OF          6 INNER ITERATIONS.
    ------------------------------------------------

 NO OUTPUT CONTROL FOR STRESS PERIOD   36   TIME STEP   19
 
 SOLVING FOR HEAD 
                                                   Max.-Head-Change                         Max.-Flux-Residual
  Residual-Control   Outer-Iter.   Inner-Iter.     Column Row Layer    Maximum-Head-Change  Column Row Layer    Maximum-Flux-Residual          L2-NORM 
          0                 1           2             4    7     1       0.1904809607E-01       4    7    1         0.1002595897E+01      0.2109055658E+01
          0                 2           2             4    7     1      -0.1852868197E-02       4    7    1        -0.1002601204E+00      0.2109048281E+00
          0                 3           1             4    7     1       0.1261733810E-03       4    7    1         0.7018206446E-02      0.1476323588E-01
          0                 4           1             4    7     1      -0.5020559920E-05       4    7    1        -0.2870450614E-03      0.6038071325E-03

    ------------------------------------------------
       NWT REQUIRED            4 OUTER ITERATIONS 
       AND A TOTAL OF          6 INNER ITERATIONS.
    ------------------------------------------------

 NO OUTPUT CONTROL FOR STRESS PERIOD   36   TIME STEP   20
 
 SOLVING FOR HEAD 
                                                   Max.-Head-Change                         Max.-Flux-Residual
  Residual-Control   Outer-Iter.   Inner-Iter.     Column Row Layer    Maximum-Head-Change  Column Row Layer    Maximum-Flux-Residual          L2-NORM 
          0                 1           2             4    7     1       0.1880442782E-01       4    7    1         0.9897084754E+00      0.2086712373E+01
          0                 2           2             4    7     1      -0.1829165720E-02       4    7    1        -0.9897136468E-01      0.2086706200E+00
          0                 3           1             4    7     1       0.1245593320E-03       4    7    1         0.6927993622E-02      0.1460686219E-01
          0                 4           1             4    7     1      -0.4956335413E-05       4    7    1        -0.2833553533E-03      0.5974177359E-03

    ------------------------------------------------
       NWT REQUIRED            4 OUTER ITERATIONS 
       AND A TOTAL OF          6 INNER ITERATIONS.
    ------------------------------------------------

 NO OUTPUT CONTROL FOR STRESS PERIOD   36   TIME STEP   21
 
 SOLVING FOR HEAD 
                                                   Max.-Head-Change                         Max.-Flux-Residual
  Residual-Control   Outer-Iter.   Inner-Iter.     Column Row Layer    Maximum-Head-Change  Column Row Layer    Maximum-Flux-Residual          L2-NORM 
          0                 1           2             4    7     1       0.1856499406E-01       4    7    1         0.9770452674E+00      0.2064772820E+01
          0                 2           2             4    7     1      -0.1805875148E-02       4    7    1        -0.9770503069E-01      0.2064767261E+00
          0                 3           1             4    7     1       0.1229733325E-03       4    7    1         0.6839350330E-02      0.1445328450E-01
          0                 4           1             4    7     1      -0.4893226952E-05       4    7    1        -0.2797298432E-03      0.5911340832E-03

    ------------------------------------------------
       NWT REQUIRED            4 OUTER ITERATIONS 
       AND A TOTAL OF          6 INNER ITERATIONS.
    ------------------------------------------------

 NO OUTPUT CONTROL FOR STRESS PERIOD   36   TIME STEP   22
 
 SOLVING FOR HEAD 
                                                   Max.-Head-Change                         Max.-Flux-Residual
  Residual-Control   Outer-Iter.   Inner-Iter.     Column Row Layer    Maximum-Head-Change  Column Row Layer    Maximum-Flux-Residual          L2-NORM 
          0                 1           2             4    7     1       0.1832971605E-01       4    7    1         0.9646016107E+00      0.2043239541E+01
          0                 2           2             4    7     1      -0.1782988824E-02       4    7    1        -0.9646065214E-01      0.2043234256E+00
          0                 3           1             4    7     1       0.1214148606E-03       4    7    1         0.6752243927E-02      0.1430255232E-01
          0                 4           1             4    7     1      -0.4831213816E-05       4    7    1        -0.2761671826E-03      0.5849595490E-03

    ------------------------------------------------
       NWT REQUIRED            4 OUTER ITERATIONS 
       AND A TOTAL OF          6 INNER ITERATIONS.
    ------------------------------------------------

 NO OUTPUT CONTROL FOR STRESS PERIOD   36   TIME STEP   23
 
 SOLVING FOR HEAD 
                                                   Max.-Head-Change                         Max.-Flux-Residual
  Residual-Control   Outer-Iter.   Inner-Iter.     Column Row Layer    Maximum-Head-Change  Column Row Layer    Maximum-Flux-Residual          L2-NORM 
          0                 1           2             4    7     1       0.1809863992E-01       4    7    1         0.9523807426E+00      0.2022093806E+01
          0                 2           2             4    7     1      -0.1760511233E-02       4    7    1        -0.9523855287E-01      0.2022089217E+00
          0                 3           1             4    7     1       0.1198842219E-03       4    7    1         0.6666697064E-02      0.1415454627E-01
          0                 4           1             4    7     1      -0.4770308437E-05       4    7    1        -0.2726683117E-03      0.5789254756E-03

    ------------------------------------------------
       NWT REQUIRED            4 OUTER ITERATIONS 
       AND A TOTAL OF          6 INNER ITERATIONS.
    ------------------------------------------------

 NO OUTPUT CONTROL FOR STRESS PERIOD   36   TIME STEP   24
 
 SOLVING FOR HEAD 
                                                   Max.-Head-Change                         Max.-Flux-Residual
  Residual-Control   Outer-Iter.   Inner-Iter.     Column Row Layer    Maximum-Head-Change  Column Row Layer    Maximum-Flux-Residual          L2-NORM 
          0                 1           2             4    7     1       0.1787168104E-01       4    7    1         0.9403777361E+00      0.2001337096E+01
          0                 2           2             4    7     1      -0.1738434143E-02       4    7    1        -0.9403824006E-01      0.2001332906E+00
          0                 3           1             4    7     1       0.1183808554E-03       4    7    1         0.6582675230E-02      0.1400925541E-01
          0                 4           1             4    7     1      -0.4710488136E-05       4    7    1        -0.2692318142E-03      0.5729744118E-03

    ------------------------------------------------
       NWT REQUIRED            4 OUTER ITERATIONS 
       AND A TOTAL OF          6 INNER ITERATIONS.
    ------------------------------------------------

 NO OUTPUT CONTROL FOR STRESS PERIOD   36   TIME STEP   25
 
 SOLVING FOR HEAD 
                                                   Max.-Head-Change                         Max.-Flux-Residual
  Residual-Control   Outer-Iter.   Inner-Iter.     Column Row Layer    Maximum-Head-Change  Column Row Layer    Maximum-Flux-Residual          L2-NORM 
          0                 1           2             4    7     1       0.1764861828E-01       4    7    1         0.9285808831E+00      0.1980944392E+01
          0                 2           2             4    7     1      -0.1716736044E-02       4    7    1        -0.9285854291E-01      0.1980940131E+00
          0                 3           1             4    7     1       0.1169032972E-03       4    7    1         0.6500096520E-02      0.1386648407E-01
          0                 4           1             4    7     1      -0.4651694543E-05       4    7    1        -0.2658543385E-03      0.5671359859E-03

    ------------------------------------------------
       NWT REQUIRED            4 OUTER ITERATIONS 
       AND A TOTAL OF          6 INNER ITERATIONS.
    ------------------------------------------------

 NO OUTPUT CONTROL FOR STRESS PERIOD   36   TIME STEP   26
 
 SOLVING FOR HEAD 
                                                   Max.-Head-Change                         Max.-Flux-Residual
  Residual-Control   Outer-Iter.   Inner-Iter.     Column Row Layer    Maximum-Head-Change  Column Row Layer    Maximum-Flux-Residual          L2-NORM 
          0                 1           2             4    7     1       0.1742950751E-01       4    7    1         0.9169933580E+00      0.1960920089E+01
          0                 2           2             4    7     1      -0.1695422370E-02       4    7    1        -0.9169977891E-01      0.1960916683E+00
          0                 3           1             4    7     1       0.1154519167E-03       4    7    1         0.6418983115E-02      0.1372636231E-01
          0                 4           1             4    7     1      -0.4593942739E-05       4    7    1        -0.2625367918E-03      0.5614061123E-03

    ------------------------------------------------
       NWT REQUIRED            4 OUTER ITERATIONS 
       AND A TOTAL OF          6 INNER ITERATIONS.
    ------------------------------------------------

 NO OUTPUT CONTROL FOR STRESS PERIOD   36   TIME STEP   27
 
 SOLVING FOR HEAD 
                                                   Max.-Head-Change                         Max.-Flux-Residual
  Residual-Control   Outer-Iter.   Inner-Iter.     Column Row Layer    Maximum-Head-Change  Column Row Layer    Maximum-Flux-Residual          L2-NORM 
          0                 1           2             4    7     1       0.1721413429E-01       4    7    1         0.9056034173E+00      0.1941250072E+01
          0                 2           2             4    7     1      -0.1674472262E-02       4    7    1        -0.9056077363E-01      0.1941246761E+00
          0                 3           1             4    7     1       0.1140252937E-03       4    7    1         0.6339252813E-02      0.1358865863E-01
          0                 4           1             4    7     1      -0.4537176198E-05       4    7    1        -0.2592758231E-03      0.5557716363E-03

    ------------------------------------------------
       NWT REQUIRED            4 OUTER ITERATIONS 
       AND A TOTAL OF          6 INNER ITERATIONS.
    ------------------------------------------------

 NO OUTPUT CONTROL FOR STRESS PERIOD   36   TIME STEP   28
 
 SOLVING FOR HEAD 
                                                   Max.-Head-Change                         Max.-Flux-Residual
  Residual-Control   Outer-Iter.   Inner-Iter.     Column Row Layer    Maximum-Head-Change  Column Row Layer    Maximum-Flux-Residual          L2-NORM 
          0                 1           2             4    7     1       0.1700268701E-01       4    7    1         0.8944219041E+00      0.1921918739E+01
          0                 2           2             4    7     1      -0.1653904047E-02       4    7    1        -0.8944261144E-01      0.1921915637E+00
          0                 3           1             4    7     1       0.1126246758E-03       4    7    1         0.6260981517E-02      0.1345335764E-01
          0                 4           1             4    7     1      -0.4481444078E-05       4    7    1        -0.2560745174E-03      0.5502383966E-03

    ------------------------------------------------
       NWT REQUIRED            4 OUTER ITERATIONS 
       AND A TOTAL OF          6 INNER ITERATIONS.
    ------------------------------------------------

 NO OUTPUT CONTROL FOR STRESS PERIOD   36   TIME STEP   29
 
 SOLVING FOR HEAD 
                                                   Max.-Head-Change                         Max.-Flux-Residual
  Residual-Control   Outer-Iter.   Inner-Iter.     Column Row Layer    Maximum-Head-Change  Column Row Layer    Maximum-Flux-Residual          L2-NORM 
          0                 1           2             4    7     1       0.1679481243E-01       4    7    1         0.8834293044E+00      0.1902932508E+01
          0                 2           2             4    7     1      -0.1633683362E-02       4    7    1        -0.8834334090E-01      0.1902929609E+00
          0                 3           1             4    7     1       0.1112477234E-03       4    7    1         0.6184032638E-02      0.1332044058E-01
          0                 4           1             4    7     1      -0.4426653816E-05       4    7    1        -0.2529272901E-03      0.5447968084E-03

    ------------------------------------------------
       NWT REQUIRED            4 OUTER ITERATIONS 
       AND A TOTAL OF          6 INNER ITERATIONS.
    ------------------------------------------------

 NO OUTPUT CONTROL FOR STRESS PERIOD   36   TIME STEP   30



 STREAM LISTING     PERIOD     36   STEP       30

 LAYER ROW COL. STREAM  RCH.  FLOW INTO     FLOW TO   FLOW OUT OF   OVRLND.     DIRECT     STREAM       STREAM     STREAM     STREAM   STREAMBED  STREAMBED
                SEG.NO.  NO.  STRM. RCH.    AQUIFER    STRM. RCH.    RUNOFF     PRECIP       ET          HEAD       DEPTH      WIDTH   CONDCTNC.   GRADIENT

   1    1    1     1     1    9.7497E+00  1.4616E-01   9.6035E+00  0.000E+00  0.000E+00  0.000E+00  1.09394E+03  8.903E-01  8.349E+00  3.757E-02  1.297E+00
   1    2    2     1     2    9.6035E+00  2.2466E-01   9.3789E+00  0.000E+00  0.000E+00  0.000E+00  1.08894E+03  8.846E-01  8.262E+00  5.783E-02  1.295E+00
   1    3    3     1     3    9.3789E+00  1.8995E-01   9.1889E+00  0.000E+00  0.000E+00  0.000E+00  1.08330E+03  8.782E-01  8.163E+00  4.898E-02  1.293E+00
   1    3    4     1     4    9.1889E+00  1.7356E-01   9.0154E+00  0.000E+00  0.000E+00  0.000E+00  1.07828E+03  8.725E-01  8.076E+00  4.482E-02  1.291E+00
   1    4    5     2     1    7.0154E+00  2.7742E-01   6.7380E+00  0.000E+00  0.000E+00  0.000E+00  1.07249E+03  5.566E-01  1.200E+01  7.800E-02  1.186E+00
   1    5    6     2     2    6.7380E+00  2.1268E-01   6.5253E+00  0.000E+00  0.000E+00  0.000E+00  1.06705E+03  5.446E-01  1.200E+01  6.000E-02  1.182E+00
   1    6    6     2     3    6.5253E+00  2.1205E-01   6.3132E+00  0.000E+00  0.000E+00  0.000E+00  1.06233E+03  5.341E-01  1.200E+01  6.000E-02  1.178E+00
   1    7    6     2     4    6.3132E+00  2.1141E-01   6.1018E+00  0.000E+00  0.000E+00  0.000E+00  1.05760E+03  5.235E-01  1.200E+01  6.000E-02  1.174E+00
   1    8    6     2     5    6.1018E+00  2.1076E-01   5.8911E+00  0.000E+00  0.000E+00  0.000E+00  1.05287E+03  5.127E-01  1.200E+01  6.000E-02  1.171E+00
   1    3    5     3     1    2.0000E+00  2.8252E-01   1.7175E+00  0.000E+00  0.000E+00  0.000E+00  1.07555E+03  1.909E+00  9.636E+00  7.227E-02  1.955E+00
   1    3    6     3     2    1.7175E+00  2.4905E-01   1.4684E+00  0.000E+00  0.000E+00  0.000E+00  1.07264E+03  1.727E+00  8.909E+00  6.682E-02  1.864E+00
   1    3    7     3     3    1.4684E+00  1.9718E-01   1.2712E+00  0.000E+00  0.000E+00  0.000E+00  1.06987E+03  1.555E+00  8.218E+00  5.547E-02  1.777E+00
   1    4    8     3     4    1.2712E+00  2.2567E-01   1.0456E+00  0.000E+00  0.000E+00  0.000E+00  1.06682E+03  1.364E+00  7.455E+00  6.709E-02  1.682E+00
   1    5    8     3     5    1.0456E+00  1.5790E-01   8.8768E-01  0.000E+00  0.000E+00  0.000E+00  1.06362E+03  1.164E+00  6.655E+00  4.991E-02  1.582E+00
   1    6    8     3     6    8.8768E-01  5.5980E-02   8.3170E-01  0.000E+00  0.000E+00  0.000E+00  1.06158E+03  1.036E+00  6.145E+00  1.844E-02  1.518E+00
   1    5   10     4     1    1.0000E+01  9.0919E-02   9.9091E+00  0.000E+00  0.000E+00  0.000E+00  1.07836E+03  6.368E-01  1.000E+01  2.500E-02  1.212E+00
   1    5    9     4     2    9.9091E+00  1.8158E-01   9.7275E+00  0.000E+00  0.000E+00  0.000E+00  1.07154E+03  6.315E-01  1.000E+01  5.000E-02  1.211E+00
   1    6    8     4     3    9.7275E+00  1.2689E-01   9.6006E+00  0.000E+00  0.000E+00  0.000E+00  1.06381E+03  6.256E-01  1.000E+01  3.500E-02  1.209E+00
   1    6    8     5     1    1.0432E+01  2.2686E-01   1.0205E+01  0.000E+00  0.000E+00  0.000E+00  1.05868E+03  6.790E-01  1.542E+01  6.166E-02  1.226E+00
   1    7    7     5     2    1.0205E+01  2.7894E-01   9.9265E+00  0.000E+00  0.000E+00  0.000E+00  1.05417E+03  6.732E-01  1.519E+01  7.594E-02  1.224E+00
   1    8    7     5     3    9.9265E+00  1.9221E-01   9.7343E+00  0.000E+00  0.000E+00  0.000E+00  1.04992E+03  6.676E-01  1.497E+01  5.241E-02  1.223E+00
   1    8    6     5     4    9.7343E+00  1.3577E-01   9.5985E+00  0.000E+00  0.000E+00  0.000E+00  1.04691E+03  6.637E-01  1.482E+01  3.706E-02  1.221E+00
   1    9    6     6     1    1.5490E+01  2.3472E-01   1.5255E+01  0.000E+00  0.000E+00  0.000E+00  1.04364E+03  9.120E-01  1.200E+01  6.000E-02  1.304E+00
   1   10    7     6     2    1.5255E+01  2.3422E-01   1.5021E+01  0.000E+00  0.000E+00  0.000E+00  1.03909E+03  9.037E-01  1.200E+01  6.000E-02  1.301E+00
   1   11    7     6     3    1.5021E+01  2.3372E-01   1.4787E+01  0.000E+00  0.000E+00  0.000E+00  1.03453E+03  8.953E-01  1.200E+01  6.000E-02  1.298E+00
   1   12    7     6     4    1.4787E+01  2.3321E-01   1.4554E+01  0.000E+00  0.000E+00  0.000E+00  1.02998E+03  8.868E-01  1.200E+01  6.000E-02  1.296E+00
   1   13    7     6     5    1.4554E+01  3.4487E-03   1.4550E+01  0.000E+00  0.000E+00  0.000E+00  1.02679E+03  8.825E-01  1.200E+01  2.400E-02  4.790E-02
   1   14    9     7     1    1.5000E+02  1.3843E+00   1.4862E+02  0.000E+00  0.000E+00  0.000E+00  1.03987E+03  2.288E+00  5.529E+01  5.593E-01  8.250E-01
   1   13    8     7     2    1.4862E+02  1.9772E+00   1.4664E+02  0.000E+00  0.000E+00  0.000E+00  1.03478E+03  2.279E+00  5.525E+01  6.147E-01  1.072E+00
   1   13    7     7     3    1.4664E+02  1.6976E+00   1.4494E+02  0.000E+00  0.000E+00  0.000E+00  1.02969E+03  2.269E+00  5.521E+01  5.584E-01  1.013E+00
   1   13    6     8     1    1.5949E+02  1.0835E+00   1.5841E+02  0.000E+00  0.000E+00  0.000E+00  1.02475E+03  2.879E+00  4.174E+01  4.254E-01  8.491E-01
   1   13    5     8     2    1.5841E+02  3.3100E-01   1.5808E+02  0.000E+00  0.000E+00  0.000E+00  1.01850E+03  2.874E+00  4.167E+01  4.246E-01  2.598E-01
   1   13    4     8     3    1.5808E+02 -1.9021E+00   1.5998E+02  0.000E+00  0.000E+00  0.000E+00  1.01225E+03  2.879E+00  4.175E+01  4.254E+00 -1.490E-01
   1   13    3     8     4    1.5998E+02 -3.3805E+00   1.6336E+02  0.000E+00  0.000E+00  0.000E+00  1.00602E+03  2.897E+00  4.201E+01  4.281E+00 -2.632E-01
   1   13    2     8     5    1.6336E+02 -2.5116E+00   1.6587E+02  0.000E+00  0.000E+00  0.000E+00  9.99792E+02  2.917E+00  4.229E+01  4.310E+00 -1.943E-01
   1   13    1     8     6    1.6587E+02 -1.9642E+00   1.6784E+02  0.000E+00  0.000E+00  0.000E+00  9.94807E+02  2.932E+00  4.251E+01  2.599E+00 -2.519E-01
   1    8    6     9     1    0.0000E+00  0.0000E+00   0.0000E+00  0.000E+00  0.000E+00  0.000E+00  1.07875E+03  0.000E+00  4.000E+00  0.000E+00  1.000E+00
   1    8    5     9     2    0.0000E+00  0.0000E+00   0.0000E+00  0.000E+00  0.000E+00  0.000E+00  1.07825E+03  0.000E+00  4.000E+00  0.000E+00  1.000E+00





UNSATURATED ZONE PACKAGE VOLUMETRIC BUDGET FOR  TIME STEP    30 STRESS PERIOD   36
  ------------------------------------------------------------------------------



     CUMULATIVE VOLUMES      L**3       RATES FOR THIS TIME STEP      L**3/T
     ------------------                 ------------------------

           IN:                                      IN:
           ---                                      ---
        INFILTRATION =  1285895727.5781          INFILTRATION =           0.8475

          OUT:                                     OUT:
          ----                                     ----
              UZF ET =  1280741483.1978                UZF ET =           0.7500
        UZF RECHARGE =       73224.0000          UZF RECHARGE =       0.0000E+00

            IN - OUT =     5081020.3803              IN - OUT =       9.7500E-02

          STORAGE:                                 STORAGE:
          --------                                 --------
      STORAGE CHANGE =     5081023.5237        STORAGE CHANGE =       9.7500E-02

 PERCENT DISCREPANCY IS DIFFERENCE BETWEEN IN-OUT MINUS CHANGE IN STORAGE
 DIVIDED BY THE AVERAGE OF IN AND OUT TIMES 100

 PERCENT DISCREPANCY =           0.00     PERCENT DISCREPANCY =           0.00






1
  VOLUMETRIC BUDGET FOR AGRICULTURAL FIELDS AT  END OF TIME STEP   30, STRESS PERIOD  36
  ------------------------------------------------------------------------------

     CUMULATIVE VOLUMES      L**3       RATES FOR THIS TIME STEP      L**3/T
     ------------------                 ------------------------

           IN:                                      IN:
           ---                                      ---
           AG WELLS      =   605950784.0000             AG WELLS      =           0.0000
      DIVERSION SEGMENTS =   601916864.0000        DIVERSION SEGMENTS =           0.0000
           GW IRRIGATION =           0.0000             GW IRRIGATION =           0.0000
           SW IRRIGATION =           0.0000             SW IRRIGATION =           0.0000
        SYSTEM LOSSES GW =           0.0000          SYSTEM LOSSES GW =           0.0000
        SYSTEM LOSSES SW =           0.0000          SYSTEM LOSSES SW =           0.0000

                TOTAL IN =  1207867648.0000                  TOTAL IN =           0.0000

          OUT:                                     OUT:
          ----                                     ----
           AG WELLS      =           0.0000             AG WELLS      =           0.0000
      DIVERSION SEGMENTS =           0.0000        DIVERSION SEGMENTS =           0.0000
           GW IRRIGATION =   605950784.0000             GW IRRIGATION =           0.0000
           SW IRRIGATION =   601926656.0000             SW IRRIGATION =           0.0000
        SYSTEM LOSSES GW =           0.0000          SYSTEM LOSSES GW =           0.0000
        SYSTEM LOSSES SW =           0.0000          SYSTEM LOSSES SW =           0.0000

               TOTAL OUT =  1207877376.0000                 TOTAL OUT =           0.0000

                IN - OUT =       -9728.0000                  IN - OUT =           0.0000

     PERCENT DISCREPANCY =          -0.00         PERCENT DISCREPANCY =           0.00



1
  VOLUMETRIC BUDGET FOR ENTIRE MODEL AT END OF TIME STEP   30, STRESS PERIOD  36
  ------------------------------------------------------------------------------

     CUMULATIVE VOLUMES      L**3       RATES FOR THIS TIME STEP      L**3/T
     ------------------                 ------------------------

           IN:                                      IN:
           ---                                      ---
             STORAGE     =   877884736.0000               STORAGE     =           4.1560
       CONSTANT HEAD     =           0.0000         CONSTANT HEAD     =           0.0000
     HEAD DEP BOUNDS     =    26561234.0000       HEAD DEP BOUNDS     =           0.2891
      STREAM LEAKAGE     =  1088091264.0000        STREAM LEAKAGE     =          11.6730
        UZF RECHARGE     =       73223.9531          UZF RECHARGE     =           0.0000
               GW ET     =           0.0000                 GW ET     =           0.0000
     SURFACE LEAKAGE     =           0.0000       SURFACE LEAKAGE     =           0.0000
           AG WELLS      =           0.0000             AG WELLS      =           0.0000

                TOTAL IN =  1992610432.0000                  TOTAL IN =          16.1180

          OUT:                                     OUT:
          ----                                     ----
             STORAGE     =   428093696.0000               STORAGE     =           6.0722
       CONSTANT HEAD     =           0.0000         CONSTANT HEAD     =           0.0000
     HEAD DEP BOUNDS     =    26519592.0000       HEAD DEP BOUNDS     =           0.2874
      STREAM LEAKAGE     =   932056704.0000        STREAM LEAKAGE     =           9.7584
        UZF RECHARGE     =           0.0000          UZF RECHARGE     =           0.0000
               GW ET     =           0.0000                 GW ET     =           0.0000
     SURFACE LEAKAGE     =           0.0000       SURFACE LEAKAGE     =           0.0000
           AG WELLS      =   605950784.0000             AG WELLS      =           0.0000

               TOTAL OUT =  1992620800.0000                 TOTAL OUT =          16.1180

                IN - OUT =      -10368.0000                  IN - OUT =       1.1444E-05

     PERCENT DISCREPANCY =          -0.00         PERCENT DISCREPANCY =           0.00






         TIME SUMMARY AT END OF TIME STEP   30 IN STRESS PERIOD   36
                    SECONDS     MINUTES      HOURS       DAYS        YEARS
                    -----------------------------------------------------------
   TIME STEP LENGTH  87667.      1461.1      24.352      1.0147     2.77799E-03
 STRESS PERIOD TIME 2.63000E+06  43833.      730.56      30.440     8.33397E-02
         TOTAL TIME 9.21360E+07 1.53560E+06  25593.      1066.4      2.9196    
1
1
                            STRESS PERIOD NO.   37, LENGTH =   2630000.    
                            -----------------------------------------------

                              NUMBER OF TIME STEPS =    30

                               MULTIPLIER FOR DELT =     1.000

                            INITIAL TIME STEP SIZE =   87666.66    

 REUSING NON-PARAMETER GHB CELLS FROM LAST STRESS PERIOD

      2 GHB CELLS

 REUSING STREAM SEGMENT DATA FROM LAST STRESS PERIOD



            AREAL INFILTRATION RATE
 READING ON UNIT   19 WITH FORMAT: (FREE)              

            1           2           3           4           5           6           7           8           9          10
 ........................................................................................................................
   1   1.0000E-10  2.0000E-10   0.000       0.000       0.000       0.000       0.000       0.000       0.000       0.000    
   2   2.0000E-10  1.0000E-10  2.0000E-10   0.000       0.000      8.0000E-10  8.0000E-10  5.0000E-10   0.000       0.000    
   3    0.000      5.0000E-10  1.0000E-10  1.0000E-10  8.0000E-10  8.0000E-10  5.0000E-10  5.0000E-10   0.000       0.000    
   4   8.0000E-10  5.0000E-10  1.0000E-10  1.0000E-10  1.0000E-10  1.0000E-10  1.0000E-10  1.0000E-10  2.0000E-10   0.000    
   5   8.0000E-10  5.0000E-10  1.0000E-10  1.0000E-10  1.0000E-10  1.0000E-10  1.0000E-10  1.0000E-10  1.0000E-10  1.0000E-10
   6   8.0000E-10  5.0000E-10  5.0000E-10  2.0000E-10  2.0000E-10  1.0000E-10  1.0000E-10  1.0000E-10  1.0000E-10  5.0000E-10
   7   8.0000E-10  5.0000E-10  5.0000E-10  2.0000E-10  2.0000E-10  1.0000E-10  1.0000E-10  2.0000E-10  2.0000E-10   0.000    
   8    0.000      5.0000E-10  5.0000E-10  2.0000E-10  2.0000E-10  1.0000E-10  1.0000E-10  2.0000E-10  5.0000E-10   0.000    
   9    0.000      5.0000E-10  5.0000E-10  2.0000E-10  2.0000E-10  1.0000E-10  1.0000E-10  2.0000E-10  5.0000E-10   0.000    
  10    0.000      5.0000E-10  5.0000E-10  2.0000E-10  2.0000E-10  1.0000E-10  1.0000E-10  2.0000E-10  5.0000E-10  8.0000E-10
  11    0.000      1.0000E-10  1.0000E-10  1.0000E-10  1.0000E-10  1.0000E-10  1.0000E-10  2.0000E-10  5.0000E-10   0.000    
  12   1.0000E-10  1.0000E-10  1.0000E-10  1.0000E-10  1.0000E-10  1.0000E-10  1.0000E-10  1.0000E-10  2.0000E-10   0.000    
  13   1.0000E-10  1.0000E-10  2.0000E-10  2.0000E-10  2.0000E-10  2.0000E-10  2.0000E-10  1.0000E-10  1.0000E-10   0.000    
  14    0.000      2.0000E-10  5.0000E-10  5.0000E-10  5.0000E-10  5.0000E-10  5.0000E-10  2.0000E-10  1.0000E-10   0.000    
  15    0.000       0.000      8.0000E-10  8.0000E-10  8.0000E-10  8.0000E-10   0.000       0.000       0.000       0.000    

                  ET RATE =  5.000000E-10

 USING ET EXTINCTION DEPTH FROM PREVIOUS STRESS PERIOD. CURRENT PERIOD IS:      37

 USING EXTINCTION WATER CONTENT FROM PREVIOUS STRESS PERIOD. CURRENT PERIOD IS:      37

 USING AIR ENTRY PRESSURE FROM PREVIOUS STRESS PERIOD. CURRENT PERIOD IS:      37

 USING ROOT PRESSURE HEAD FROM PREVIOUS STRESS PERIOD. CURRENT PERIOD IS:      37

 USING ROOT ACTIVITY FROM PREVIOUS STRESS PERIOD. CURRENT PERIOD IS:      37

 PROCESSING AG STRESS PERIOD DATA

 READING AG STRESS PERIOD DATA

 READING IRRIGATION SEGMENT

 READING IRRIGATION WELL

 READING SUPPLEMENTAL WELL

 END PROCESSING AG STRESS PERIOD DATA OPTIONS
 
 SOLVING FOR HEAD 
                                                   Max.-Head-Change                         Max.-Flux-Residual
  Residual-Control   Outer-Iter.   Inner-Iter.     Column Row Layer    Maximum-Head-Change  Column Row Layer    Maximum-Flux-Residual          L2-NORM 
          0                 1           2             4    7     1       0.1659056534E-01       4    7    1         0.8726292645E+00      0.1885021743E+01
          0                 2           2             4    7     1      -0.1613815538E-02       4    7    1        -0.8726332660E-01      0.1885010588E+00
          0                 3           1             4    7     1       0.1098947995E-03       4    7    1         0.6108431700E-02      0.1319494116E-01
          0                 4           1             4    7     1      -0.4372819575E-05       4    7    1        -0.2498352001E-03      0.5396653222E-03

    ------------------------------------------------
       NWT REQUIRED            4 OUTER ITERATIONS 
       AND A TOTAL OF          6 INNER ITERATIONS.
    ------------------------------------------------

 NO OUTPUT CONTROL FOR STRESS PERIOD   37   TIME STEP    1
 
 SOLVING FOR HEAD 
                                                   Max.-Head-Change                         Max.-Flux-Residual
  Residual-Control   Outer-Iter.   Inner-Iter.     Column Row Layer    Maximum-Head-Change  Column Row Layer    Maximum-Flux-Residual          L2-NORM 
          0                 1           2             4    7     1       0.1638986215E-01       4    7    1         0.8620173050E+00      0.1869185716E+01
          0                 2           2             4    7     1      -0.1594292442E-02       4    7    1        -0.8620212066E-01      0.1869135685E+00
          0                 3           1             4    7     1       0.1085653510E-03       4    7    1         0.6034147367E-02      0.1308346377E-01
          0                 4           1             4    7     1      -0.4319919824E-05       4    7    1        -0.2467969784E-03      0.5350956791E-03

    ------------------------------------------------
       NWT REQUIRED            4 OUTER ITERATIONS 
       AND A TOTAL OF          6 INNER ITERATIONS.
    ------------------------------------------------

 NO OUTPUT CONTROL FOR STRESS PERIOD   37   TIME STEP    2
 
 SOLVING FOR HEAD 
                                                   Max.-Head-Change                         Max.-Flux-Residual
  Residual-Control   Outer-Iter.   Inner-Iter.     Column Row Layer    Maximum-Head-Change  Column Row Layer    Maximum-Flux-Residual          L2-NORM 
          0                 1           2             4    7     1       0.1619262641E-01       4    7    1         0.8515890912E+00      0.1851033642E+01
          0                 2           2             4    7     1      -0.1575106639E-02       4    7    1        -0.8515928957E-01      0.1850989257E+00
          0                 3           1             4    7     1       0.1072588701E-03       4    7    1         0.5961149239E-02      0.1295653874E-01
          0                 4           1             4    7     1      -0.4267933611E-05       4    7    1        -0.2438113524E-03      0.5298849932E-03

    ------------------------------------------------
       NWT REQUIRED            4 OUTER ITERATIONS 
       AND A TOTAL OF          6 INNER ITERATIONS.
    ------------------------------------------------

 NO OUTPUT CONTROL FOR STRESS PERIOD   37   TIME STEP    3
 
 SOLVING FOR HEAD 
                                                   Max.-Head-Change                         Max.-Flux-Residual
  Residual-Control   Outer-Iter.   Inner-Iter.     Column Row Layer    Maximum-Head-Change  Column Row Layer    Maximum-Flux-Residual          L2-NORM 
          0                 1           2             4    7     1       0.1599891877E-01       4    7    1         0.8413479821E+00      0.1833208345E+01
          0                 2           2             4    7     1      -0.1556264029E-02       4    7    1        -0.8413516924E-01      0.1833168471E+00
          0                 3           1             4    7     1       0.1059757601E-03       4    7    1         0.5889460882E-02      0.1283176513E-01
          0                 4           1             4    7     1      -0.4216877743E-05       4    7    1        -0.2408793166E-03      0.5247808926E-03

    ------------------------------------------------
       NWT REQUIRED            4 OUTER ITERATIONS 
       AND A TOTAL OF          6 INNER ITERATIONS.
    ------------------------------------------------

 NO OUTPUT CONTROL FOR STRESS PERIOD   37   TIME STEP    4
 
 SOLVING FOR HEAD 
                                                   Max.-Head-Change                         Max.-Flux-Residual
  Residual-Control   Outer-Iter.   Inner-Iter.     Column Row Layer    Maximum-Head-Change  Column Row Layer    Maximum-Flux-Residual          L2-NORM 
          0                 1           2             4    7     1       0.1580838857E-01       4    7    1         0.8312751559E+00      0.1815680713E+01
          0                 2           2             4    7     1      -0.1537730499E-02       4    7    1        -0.8312787743E-01      0.1815644675E+00
          0                 3           1             4    7     1       0.1047136967E-03       4    7    1         0.5818950510E-02      0.1270912650E-01
          0                 4           1             4    7     1      -0.4166659199E-05       4    7    1        -0.2379954390E-03      0.5197873061E-03

    ------------------------------------------------
       NWT REQUIRED            4 OUTER ITERATIONS 
       AND A TOTAL OF          6 INNER ITERATIONS.
    ------------------------------------------------

 NO OUTPUT CONTROL FOR STRESS PERIOD   37   TIME STEP    5
 
 SOLVING FOR HEAD 
                                                   Max.-Head-Change                         Max.-Flux-Residual
  Residual-Control   Outer-Iter.   Inner-Iter.     Column Row Layer    Maximum-Head-Change  Column Row Layer    Maximum-Flux-Residual          L2-NORM 
          0                 1           2             4    7     1       0.1562111349E-01       4    7    1         0.8213743972E+00      0.1798466123E+01
          0                 2           2             4    7     1      -0.1519513608E-02       4    7    1        -0.8213779259E-01      0.1798434116E+00
          0                 3           1             4    7     1       0.1034731950E-03       4    7    1         0.5749644617E-02      0.1258873193E-01
          0                 4           1             4    7     1      -0.4117298126E-05       4    7    1        -0.2351608143E-03      0.5148749639E-03

    ------------------------------------------------
       NWT REQUIRED            4 OUTER ITERATIONS 
       AND A TOTAL OF          6 INNER ITERATIONS.
    ------------------------------------------------

 NO OUTPUT CONTROL FOR STRESS PERIOD   37   TIME STEP    6
 
 SOLVING FOR HEAD 
                                                   Max.-Head-Change                         Max.-Flux-Residual
  Residual-Control   Outer-Iter.   Inner-Iter.     Column Row Layer    Maximum-Head-Change  Column Row Layer    Maximum-Flux-Residual          L2-NORM 
          0                 1           2             4    7     1       0.1543715561E-01       4    7    1         0.8116497350E+00      0.1781542567E+01
          0                 2           2             4    7     1      -0.1501619394E-02       4    7    1        -0.8116531768E-01      0.1781513808E+00
          0                 3           1             4    7     1       0.1022546665E-03       4    7    1         0.5681571434E-02      0.1247031886E-01
          0                 4           1             4    7     1      -0.4068811676E-05       4    7    1        -0.2323765987E-03      0.5100311440E-03

    ------------------------------------------------
       NWT REQUIRED            4 OUTER ITERATIONS 
       AND A TOTAL OF          6 INNER ITERATIONS.
    ------------------------------------------------

 NO OUTPUT CONTROL FOR STRESS PERIOD   37   TIME STEP    7
 
 SOLVING FOR HEAD 
                                                   Max.-Head-Change                         Max.-Flux-Residual
  Residual-Control   Outer-Iter.   Inner-Iter.     Column Row Layer    Maximum-Head-Change  Column Row Layer    Maximum-Flux-Residual          L2-NORM 
          0                 1           2             4    7     1       0.1525630519E-01       4    7    1         0.8020897422E+00      0.1764906398E+01
          0                 2           2             4    7     1      -0.1484027454E-02       4    7    1        -0.8020930996E-01      0.1764880114E+00
          0                 3           1             4    7     1       0.1010567220E-03       4    7    1         0.5614650945E-02      0.1235387474E-01
          0                 4           1             4    7     1      -0.4021144360E-05       4    7    1        -0.2296395598E-03      0.5052575617E-03

    ------------------------------------------------
       NWT REQUIRED            4 OUTER ITERATIONS 
       AND A TOTAL OF          6 INNER ITERATIONS.
    ------------------------------------------------

 NO OUTPUT CONTROL FOR STRESS PERIOD   37   TIME STEP    8
 
 SOLVING FOR HEAD 
                                                   Max.-Head-Change                         Max.-Flux-Residual
  Residual-Control   Outer-Iter.   Inner-Iter.     Column Row Layer    Maximum-Head-Change  Column Row Layer    Maximum-Flux-Residual          L2-NORM 
          0                 1           2             4    7     1       0.1507849831E-01       4    7    1         0.7926908664E+00      0.1748550800E+01
          0                 2           2             4    7     1      -0.1466731573E-02       4    7    1        -0.7926941416E-01      0.1748526957E+00
          0                 3           1             4    7     1       0.9987893815E-04       4    7    1         0.5548858303E-02      0.1223943749E-01

    ------------------------------------------------
       NWT REQUIRED            3 OUTER ITERATIONS 
       AND A TOTAL OF          5 INNER ITERATIONS.
    ------------------------------------------------

 NO OUTPUT CONTROL FOR STRESS PERIOD   37   TIME STEP    9
 
 SOLVING FOR HEAD 
                                                   Max.-Head-Change                         Max.-Flux-Residual
  Residual-Control   Outer-Iter.   Inner-Iter.     Column Row Layer    Maximum-Head-Change  Column Row Layer    Maximum-Flux-Residual          L2-NORM 
          0                 1           2             4    7     1       0.1490374112E-01       4    7    1         0.7834539629E+00      0.1732462272E+01
          0                 2           2             4    7     1      -0.1449732345E-02       4    7    1        -0.7834571582E-01      0.1732441080E+00
          0                 3           1             4    7     1       0.9872135474E-04       4    7    1         0.5484199455E-02      0.1212686933E-01

    ------------------------------------------------
       NWT REQUIRED            3 OUTER ITERATIONS 
       AND A TOTAL OF          5 INNER ITERATIONS.
    ------------------------------------------------

 NO OUTPUT CONTROL FOR STRESS PERIOD   37   TIME STEP   10
 
 SOLVING FOR HEAD 
                                                   Max.-Head-Change                         Max.-Flux-Residual
  Residual-Control   Outer-Iter.   Inner-Iter.     Column Row Layer    Maximum-Head-Change  Column Row Layer    Maximum-Flux-Residual          L2-NORM 
          0                 1           2             4    7     1       0.1473189462E-01       4    7    1         0.7743710639E+00      0.1716637779E+01
          0                 2           2             4    7     1      -0.1433016251E-02       4    7    1        -0.7743741815E-01      0.1716618326E+00
          0                 3           1             4    7     1       0.9758305168E-04       4    7    1         0.5420618665E-02      0.1201613814E-01

    ------------------------------------------------
       NWT REQUIRED            3 OUTER ITERATIONS 
       AND A TOTAL OF          5 INNER ITERATIONS.
    ------------------------------------------------

 NO OUTPUT CONTROL FOR STRESS PERIOD   37   TIME STEP   11
 
 SOLVING FOR HEAD 
                                                   Max.-Head-Change                         Max.-Flux-Residual
  Residual-Control   Outer-Iter.   Inner-Iter.     Column Row Layer    Maximum-Head-Change  Column Row Layer    Maximum-Flux-Residual          L2-NORM 
          0                 1           2             4    7     1       0.1456289969E-01       4    7    1         0.7654390788E+00      0.1701080584E+01
          0                 2           2             4    7     1      -0.1416571631E-02       4    7    1        -0.7654421205E-01      0.1701071929E+00
          0                 3           1             4    7     1       0.9645748614E-04       4    7    1         0.5358094287E-02      0.1189905344E-01

    ------------------------------------------------
       NWT REQUIRED            3 OUTER ITERATIONS 
       AND A TOTAL OF          5 INNER ITERATIONS.
    ------------------------------------------------

 NO OUTPUT CONTROL FOR STRESS PERIOD   37   TIME STEP   12
 
 SOLVING FOR HEAD 
                                                   Max.-Head-Change                         Max.-Flux-Residual
  Residual-Control   Outer-Iter.   Inner-Iter.     Column Row Layer    Maximum-Head-Change  Column Row Layer    Maximum-Flux-Residual          L2-NORM 
          0                 1           2             4    7     1       0.1439682599E-01       4    7    1         0.7566622535E+00      0.1685771523E+01
          0                 2           2             4    7     1      -0.1400482454E-02       4    7    1        -0.7566652217E-01      0.1686616926E+00
          0                 3           1             4    7     1       0.9536762288E-04       4    7    1         0.5296656040E-02      0.1180613662E-01

    ------------------------------------------------
       NWT REQUIRED            3 OUTER ITERATIONS 
       AND A TOTAL OF          5 INNER ITERATIONS.
    ------------------------------------------------

 NO OUTPUT CONTROL FOR STRESS PERIOD   37   TIME STEP   13
 
 SOLVING FOR HEAD 
                                                   Max.-Head-Change                         Max.-Flux-Residual
  Residual-Control   Outer-Iter.   Inner-Iter.     Column Row Layer    Maximum-Head-Change  Column Row Layer    Maximum-Flux-Residual          L2-NORM 
          0                 1           2             4    7     1       0.1423342848E-01       4    7    1         0.7480337557E+00      0.1670637726E+01
          0                 2           2             4    7     1      -0.1384528774E-02       4    7    1        -0.7480366547E-01      0.1670622729E+00
          0                 3           1             4    7     1       0.9428123718E-04       4    7    1         0.5236256105E-02      0.1169419048E-01

    ------------------------------------------------
       NWT REQUIRED            3 OUTER ITERATIONS 
       AND A TOTAL OF          5 INNER ITERATIONS.
    ------------------------------------------------

 NO OUTPUT CONTROL FOR STRESS PERIOD   37   TIME STEP   14
 
 SOLVING FOR HEAD 
                                                   Max.-Head-Change                         Max.-Flux-Residual
  Residual-Control   Outer-Iter.   Inner-Iter.     Column Row Layer    Maximum-Head-Change  Column Row Layer    Maximum-Flux-Residual          L2-NORM 
          0                 1           2             4    7     1       0.1407270128E-01       4    7    1         0.7395429944E+00      0.1655747237E+01
          0                 2           2             4    7     1      -0.1368894298E-02       4    7    1        -0.7395458248E-01      0.1655733452E+00
          0                 3           1             4    7     1       0.9321658791E-04       4    7    1         0.5176820309E-02      0.1159000036E-01

    ------------------------------------------------
       NWT REQUIRED            3 OUTER ITERATIONS 
       AND A TOTAL OF          5 INNER ITERATIONS.
    ------------------------------------------------

 NO OUTPUT CONTROL FOR STRESS PERIOD   37   TIME STEP   15
 
 SOLVING FOR HEAD 
                                                   Max.-Head-Change                         Max.-Flux-Residual
  Residual-Control   Outer-Iter.   Inner-Iter.     Column Row Layer    Maximum-Head-Change  Column Row Layer    Maximum-Flux-Residual          L2-NORM 
          0                 1           2             4    7     1       0.1391466665E-01       4    7    1         0.7311948498E+00      0.1641097401E+01
          0                 2           2             4    7     1      -0.1353521738E-02       4    7    1        -0.7311976131E-01      0.1641084795E+00
          0                 3           1             4    7     1       0.9216977505E-04       4    7    1         0.5118382889E-02      0.1148746230E-01

    ------------------------------------------------
       NWT REQUIRED            3 OUTER ITERATIONS 
       AND A TOTAL OF          5 INNER ITERATIONS.
    ------------------------------------------------

 NO OUTPUT CONTROL FOR STRESS PERIOD   37   TIME STEP   16
 
 SOLVING FOR HEAD 
                                                   Max.-Head-Change                         Max.-Flux-Residual
  Residual-Control   Outer-Iter.   Inner-Iter.     Column Row Layer    Maximum-Head-Change  Column Row Layer    Maximum-Flux-Residual          L2-NORM 
          0                 1           2             4    7     1       0.1375913414E-01       4    7    1         0.7229789860E+00      0.1626675627E+01
          0                 2           2             4    7     1      -0.1338392570E-02       4    7    1        -0.7229816844E-01      0.1626663914E+00
          0                 3           1             4    7     1       0.9113953594E-04       4    7    1         0.5060871428E-02      0.1138653818E-01

    ------------------------------------------------
       NWT REQUIRED            3 OUTER ITERATIONS 
       AND A TOTAL OF          5 INNER ITERATIONS.
    ------------------------------------------------

 NO OUTPUT CONTROL FOR STRESS PERIOD   37   TIME STEP   17
 
 SOLVING FOR HEAD 
                                                   Max.-Head-Change                         Max.-Flux-Residual
  Residual-Control   Outer-Iter.   Inner-Iter.     Column Row Layer    Maximum-Head-Change  Column Row Layer    Maximum-Flux-Residual          L2-NORM 
          0                 1           2             4    7     1       0.1360619543E-01       4    7    1         0.7149001774E+00      0.1612495304E+01
          0                 2           2             4    7     1      -0.1323515709E-02       4    7    1        -0.7149028120E-01      0.1612484394E+00
          0                 3           1             4    7     1       0.9012647766E-04       4    7    1         0.5004319360E-02      0.1128728252E-01

    ------------------------------------------------
       NWT REQUIRED            3 OUTER ITERATIONS 
       AND A TOTAL OF          5 INNER ITERATIONS.
    ------------------------------------------------

 NO OUTPUT CONTROL FOR STRESS PERIOD   37   TIME STEP   18
 
 SOLVING FOR HEAD 
                                                   Max.-Head-Change                         Max.-Flux-Residual
  Residual-Control   Outer-Iter.   Inner-Iter.     Column Row Layer    Maximum-Head-Change  Column Row Layer    Maximum-Flux-Residual          L2-NORM 
          0                 1           2             4    7     1       0.1345579367E-01       4    7    1         0.7069558538E+00      0.1598536545E+01
          0                 2           2             4    7     1      -0.1308885627E-02       4    7    1        -0.7069584266E-01      0.1598526416E+00
          0                 3           1             4    7     1       0.8913022424E-04       4    7    1         0.4948708709E-02      0.1118957296E-01

    ------------------------------------------------
       NWT REQUIRED            3 OUTER ITERATIONS 
       AND A TOTAL OF          5 INNER ITERATIONS.
    ------------------------------------------------

 NO OUTPUT CONTROL FOR STRESS PERIOD   37   TIME STEP   19
 
 SOLVING FOR HEAD 
                                                   Max.-Head-Change                         Max.-Flux-Residual
  Residual-Control   Outer-Iter.   Inner-Iter.     Column Row Layer    Maximum-Head-Change  Column Row Layer    Maximum-Flux-Residual          L2-NORM 
          0                 1           2             4    7     1       0.1330774220E-01       4    7    1         0.6991357409E+00      0.1584793510E+01
          0                 2           2             4    7     1      -0.1294484166E-02       4    7    1        -0.6991382534E-01      0.1584786382E+00
          0                 3           1             4    7     1       0.8814953860E-04       4    7    1         0.4893967504E-02      0.1109340087E-01

    ------------------------------------------------
       NWT REQUIRED            3 OUTER ITERATIONS 
       AND A TOTAL OF          5 INNER ITERATIONS.
    ------------------------------------------------

 NO OUTPUT CONTROL FOR STRESS PERIOD   37   TIME STEP   20
 
 SOLVING FOR HEAD 
                                                   Max.-Head-Change                         Max.-Flux-Residual
  Residual-Control   Outer-Iter.   Inner-Iter.     Column Row Layer    Maximum-Head-Change  Column Row Layer    Maximum-Flux-Residual          L2-NORM 
          0                 1           2             4    7     1       0.1316213302E-01       4    7    1         0.6914448122E+00      0.1571271165E+01
          0                 2           2             4    7     1      -0.1280320276E-02       4    7    1        -0.6914472660E-01      0.1571262369E+00
          0                 3           1             4    7     1       0.8718503088E-04       4    7    1         0.4840130615E-02      0.1099875719E-01

    ------------------------------------------------
       NWT REQUIRED            3 OUTER ITERATIONS 
       AND A TOTAL OF          5 INNER ITERATIONS.
    ------------------------------------------------

 NO OUTPUT CONTROL FOR STRESS PERIOD   37   TIME STEP   21
 
 SOLVING FOR HEAD 
                                                   Max.-Head-Change                         Max.-Flux-Residual
  Residual-Control   Outer-Iter.   Inner-Iter.     Column Row Layer    Maximum-Head-Change  Column Row Layer    Maximum-Flux-Residual          L2-NORM 
          0                 1           2             4    7     1       0.1301891392E-01       4    7    1         0.6838805123E+00      0.1557956438E+01
          0                 2           2             4    7     1      -0.1266388878E-02       4    7    1        -0.6838829089E-01      0.1557948085E+00
          0                 3           1             4    7     1       0.8623635530E-04       4    7    1         0.4787180155E-02      0.1090554354E-01

    ------------------------------------------------
       NWT REQUIRED            3 OUTER ITERATIONS 
       AND A TOTAL OF          5 INNER ITERATIONS.
    ------------------------------------------------

 NO OUTPUT CONTROL FOR STRESS PERIOD   37   TIME STEP   22
 
 SOLVING FOR HEAD 
                                                   Max.-Head-Change                         Max.-Flux-Residual
  Residual-Control   Outer-Iter.   Inner-Iter.     Column Row Layer    Maximum-Head-Change  Column Row Layer    Maximum-Flux-Residual          L2-NORM 
          0                 1           2             4    7     1       0.1287803587E-01       4    7    1         0.6764401344E+00      0.1544851318E+01
          0                 2           2             4    7     1      -0.1252685203E-02       4    7    1        -0.6764424752E-01      0.1544843403E+00
          0                 3           1             4    7     1       0.8530318691E-04       4    7    1         0.4735097167E-02      0.1081381850E-01

    ------------------------------------------------
       NWT REQUIRED            3 OUTER ITERATIONS 
       AND A TOTAL OF          5 INNER ITERATIONS.
    ------------------------------------------------

 NO OUTPUT CONTROL FOR STRESS PERIOD   37   TIME STEP   23
 
 SOLVING FOR HEAD 
                                                   Max.-Head-Change                         Max.-Flux-Residual
  Residual-Control   Outer-Iter.   Inner-Iter.     Column Row Layer    Maximum-Head-Change  Column Row Layer    Maximum-Flux-Residual          L2-NORM 
          0                 1           2             4    7     1       0.1273944931E-01       4    7    1         0.6691211365E+00      0.1531951019E+01
          0                 2           2             4    7     1      -0.1239204429E-02       4    7    1        -0.6691234231E-01      0.1531943596E+00
          0                 3           1             4    7     1       0.8438519685E-04       4    7    1         0.4683863821E-02      0.1072354338E-01

    ------------------------------------------------
       NWT REQUIRED            3 OUTER ITERATIONS 
       AND A TOTAL OF          5 INNER ITERATIONS.
    ------------------------------------------------

 NO OUTPUT CONTROL FOR STRESS PERIOD   37   TIME STEP   24
 
 SOLVING FOR HEAD 
                                                   Max.-Head-Change                         Max.-Flux-Residual
  Residual-Control   Outer-Iter.   Inner-Iter.     Column Row Layer    Maximum-Head-Change  Column Row Layer    Maximum-Flux-Residual          L2-NORM 
          0                 1           2             4    7     1       0.1260310875E-01       4    7    1         0.6619209482E+00      0.1519251217E+01
          0                 2           2             4    7     1      -0.1225942131E-02       4    7    1        -0.6619231819E-01      0.1519244211E+00
          0                 3           1             4    7     1       0.8348208430E-04       4    7    1         0.4633462163E-02      0.1063464525E-01

    ------------------------------------------------
       NWT REQUIRED            3 OUTER ITERATIONS 
       AND A TOTAL OF          5 INNER ITERATIONS.
    ------------------------------------------------

 NO OUTPUT CONTROL FOR STRESS PERIOD   37   TIME STEP   25
 
 SOLVING FOR HEAD 
                                                   Max.-Head-Change                         Max.-Flux-Residual
  Residual-Control   Outer-Iter.   Inner-Iter.     Column Row Layer    Maximum-Head-Change  Column Row Layer    Maximum-Flux-Residual          L2-NORM 
          0                 1           2             4    7     1       0.1246896510E-01       4    7    1         0.6548372113E+00      0.1506736312E+01
          0                 2           2             4    7     1      -0.1212893536E-02       4    7    1        -0.6548393935E-01      0.1506729565E+00
          0                 3           1             4    7     1       0.8259352432E-04       4    7    1         0.4583875668E-02      0.1054704203E-01

    ------------------------------------------------
       NWT REQUIRED            3 OUTER ITERATIONS 
       AND A TOTAL OF          5 INNER ITERATIONS.
    ------------------------------------------------

 NO OUTPUT CONTROL FOR STRESS PERIOD   37   TIME STEP   26
 
 SOLVING FOR HEAD 
                                                   Max.-Head-Change                         Max.-Flux-Residual
  Residual-Control   Outer-Iter.   Inner-Iter.     Column Row Layer    Maximum-Head-Change  Column Row Layer    Maximum-Flux-Residual          L2-NORM 
          0                 1           2             4    7     1       0.1233697291E-01       4    7    1         0.6478673811E+00      0.1494418712E+01
          0                 2           2             4    7     1      -0.1200054220E-02       4    7    1        -0.6478695133E-01      0.1494412474E+00
          0                 3           1             4    7     1       0.8171921515E-04       4    7    1         0.4535086548E-02      0.1046083624E-01

    ------------------------------------------------
       NWT REQUIRED            3 OUTER ITERATIONS 
       AND A TOTAL OF          5 INNER ITERATIONS.
    ------------------------------------------------

 NO OUTPUT CONTROL FOR STRESS PERIOD   37   TIME STEP   27
 
 SOLVING FOR HEAD 
                                                   Max.-Head-Change                         Max.-Flux-Residual
  Residual-Control   Outer-Iter.   Inner-Iter.     Column Row Layer    Maximum-Head-Change  Column Row Layer    Maximum-Flux-Residual          L2-NORM 
          0                 1           2             4    7     1       0.1220695342E-01       4    7    1         0.6410017730E+00      0.1482282088E+01
          0                 2           2             4    7     1      -0.1187406797E-02       4    7    1        -0.6410038563E-01      0.1482275989E+00
          0                 3           1             4    7     1       0.8085797343E-04       4    7    1         0.4487026968E-02      0.1037586991E-01

    ------------------------------------------------
       NWT REQUIRED            3 OUTER ITERATIONS 
       AND A TOTAL OF          5 INNER ITERATIONS.
    ------------------------------------------------

 NO OUTPUT CONTROL FOR STRESS PERIOD   37   TIME STEP   28
 
 SOLVING FOR HEAD 
                                                   Max.-Head-Change                         Max.-Flux-Residual
  Residual-Control   Outer-Iter.   Inner-Iter.     Column Row Layer    Maximum-Head-Change  Column Row Layer    Maximum-Flux-Residual          L2-NORM 
          0                 1           2             4    7     1       0.1207913930E-01       4    7    1         0.6342531012E+00      0.1470332501E+01
          0                 2           2             4    7     1      -0.1174973897E-02       4    7    1        -0.6342551368E-01      0.1470326554E+00
          0                 3           1             4    7     1       0.8001133953E-04       4    7    1         0.4439785945E-02      0.1029221360E-01

    ------------------------------------------------
       NWT REQUIRED            3 OUTER ITERATIONS 
       AND A TOTAL OF          5 INNER ITERATIONS.
    ------------------------------------------------

 NO OUTPUT CONTROL FOR STRESS PERIOD   37   TIME STEP   29
 
 SOLVING FOR HEAD 
                                                   Max.-Head-Change                         Max.-Flux-Residual
  Residual-Control   Outer-Iter.   Inner-Iter.     Column Row Layer    Maximum-Head-Change  Column Row Layer    Maximum-Flux-Residual          L2-NORM 
          0                 1           2             4    7     1       0.1195334649E-01       4    7    1         0.6276114463E+00      0.1458563398E+01
          0                 2           2             4    7     1      -0.1165327106E-02       4    7    1        -0.6292698459E-01      0.1459104458E+00
          0                 3           1             4    7     1       0.7935442529E-04       4    7    1         0.4404888683E-02      0.1021367073E-01

    ------------------------------------------------
       NWT REQUIRED            3 OUTER ITERATIONS 
       AND A TOTAL OF          5 INNER ITERATIONS.
    ------------------------------------------------

 NO OUTPUT CONTROL FOR STRESS PERIOD   37   TIME STEP   30



 STREAM LISTING     PERIOD     37   STEP       30

 LAYER ROW COL. STREAM  RCH.  FLOW INTO     FLOW TO   FLOW OUT OF   OVRLND.     DIRECT     STREAM       STREAM     STREAM     STREAM   STREAMBED  STREAMBED
                SEG.NO.  NO.  STRM. RCH.    AQUIFER    STRM. RCH.    RUNOFF     PRECIP       ET          HEAD       DEPTH      WIDTH   CONDCTNC.   GRADIENT

   1    1    1     1     1    8.6247E+00  1.3546E-01   8.4893E+00  0.000E+00  0.000E+00  0.000E+00  1.09390E+03  8.549E-01  7.809E+00  3.514E-02  1.285E+00
   1    2    2     1     2    8.4893E+00  2.0809E-01   8.2812E+00  0.000E+00  0.000E+00  0.000E+00  1.08891E+03  8.492E-01  7.723E+00  5.406E-02  1.283E+00
   1    3    3     1     3    8.2812E+00  1.7583E-01   8.1054E+00  0.000E+00  0.000E+00  0.000E+00  1.08326E+03  8.427E-01  7.626E+00  4.576E-02  1.281E+00
   1    3    4     1     4    8.1054E+00  1.6058E-01   7.9448E+00  0.000E+00  0.000E+00  0.000E+00  1.07824E+03  8.369E-01  7.541E+00  4.185E-02  1.279E+00
   1    4    5     2     1    5.9448E+00  2.7323E-01   5.6716E+00  0.000E+00  0.000E+00  0.000E+00  1.07244E+03  5.030E-01  1.200E+01  7.800E-02  1.168E+00
   1    5    6     2     2    5.6716E+00  2.0942E-01   5.4621E+00  0.000E+00  0.000E+00  0.000E+00  1.06700E+03  4.904E-01  1.200E+01  6.000E-02  1.163E+00
   1    6    6     2     3    5.4621E+00  2.0875E-01   5.2534E+00  0.000E+00  0.000E+00  0.000E+00  1.06227E+03  4.792E-01  1.200E+01  6.000E-02  1.160E+00
   1    7    6     2     4    5.2534E+00  2.0808E-01   5.0453E+00  0.000E+00  0.000E+00  0.000E+00  1.05754E+03  4.679E-01  1.200E+01  6.000E-02  1.156E+00
   1    8    6     2     5    5.0453E+00  2.0739E-01   4.8379E+00  0.000E+00  0.000E+00  0.000E+00  1.05282E+03  4.565E-01  1.200E+01  6.000E-02  1.152E+00
   1    3    5     3     1    2.0000E+00  2.8252E-01   1.7175E+00  0.000E+00  0.000E+00  0.000E+00  1.07555E+03  1.909E+00  9.636E+00  7.227E-02  1.955E+00
   1    3    6     3     2    1.7175E+00  2.4905E-01   1.4684E+00  0.000E+00  0.000E+00  0.000E+00  1.07264E+03  1.727E+00  8.909E+00  6.682E-02  1.864E+00
   1    3    7     3     3    1.4684E+00  1.9718E-01   1.2712E+00  0.000E+00  0.000E+00  0.000E+00  1.06987E+03  1.555E+00  8.218E+00  5.547E-02  1.777E+00
   1    4    8     3     4    1.2712E+00  2.2567E-01   1.0456E+00  0.000E+00  0.000E+00  0.000E+00  1.06682E+03  1.364E+00  7.455E+00  6.709E-02  1.682E+00
   1    5    8     3     5    1.0456E+00  1.5790E-01   8.8768E-01  0.000E+00  0.000E+00  0.000E+00  1.06362E+03  1.164E+00  6.655E+00  4.991E-02  1.582E+00
   1    6    8     3     6    8.8768E-01  5.5980E-02   8.3170E-01  0.000E+00  0.000E+00  0.000E+00  1.06158E+03  1.036E+00  6.145E+00  1.844E-02  1.518E+00
   1    5   10     4     1    1.0000E+01  9.0919E-02   9.9091E+00  0.000E+00  0.000E+00  0.000E+00  1.07836E+03  6.368E-01  1.000E+01  2.500E-02  1.212E+00
   1    5    9     4     2    9.9091E+00  1.8158E-01   9.7275E+00  0.000E+00  0.000E+00  0.000E+00  1.07154E+03  6.315E-01  1.000E+01  5.000E-02  1.211E+00
   1    6    8     4     3    9.7275E+00  1.2689E-01   9.6006E+00  0.000E+00  0.000E+00  0.000E+00  1.06381E+03  6.256E-01  1.000E+01  3.500E-02  1.209E+00
   1    6    8     5     1    1.0432E+01  2.2686E-01   1.0205E+01  0.000E+00  0.000E+00  0.000E+00  1.05868E+03  6.790E-01  1.542E+01  6.166E-02  1.226E+00
   1    7    7     5     2    1.0205E+01  2.7894E-01   9.9265E+00  0.000E+00  0.000E+00  0.000E+00  1.05417E+03  6.732E-01  1.519E+01  7.594E-02  1.224E+00
   1    8    7     5     3    9.9265E+00  1.9221E-01   9.7343E+00  0.000E+00  0.000E+00  0.000E+00  1.04992E+03  6.676E-01  1.497E+01  5.241E-02  1.223E+00
   1    8    6     5     4    9.7343E+00  1.3577E-01   9.5985E+00  0.000E+00  0.000E+00  0.000E+00  1.04691E+03  6.637E-01  1.482E+01  3.706E-02  1.221E+00
   1    9    6     6     1    1.4436E+01  2.3244E-01   1.4204E+01  0.000E+00  0.000E+00  0.000E+00  1.04360E+03  8.741E-01  1.200E+01  6.000E-02  1.291E+00
   1   10    7     6     2    1.4204E+01  2.3193E-01   1.3972E+01  0.000E+00  0.000E+00  0.000E+00  1.03905E+03  8.655E-01  1.200E+01  6.000E-02  1.289E+00
   1   11    7     6     3    1.3972E+01  2.3142E-01   1.3741E+01  0.000E+00  0.000E+00  0.000E+00  1.03449E+03  8.570E-01  1.200E+01  6.000E-02  1.286E+00
   1   12    7     6     4    1.3741E+01  2.3090E-01   1.3510E+01  0.000E+00  0.000E+00  0.000E+00  1.02994E+03  8.484E-01  1.200E+01  6.000E-02  1.283E+00
   1   13    7     6     5    1.3510E+01  2.7300E-03   1.3507E+01  0.000E+00  0.000E+00  0.000E+00  1.02675E+03  8.440E-01  1.200E+01  2.400E-02  3.792E-02
   1   14    9     7     1    1.5000E+02  1.3852E+00   1.4861E+02  0.000E+00  0.000E+00  0.000E+00  1.03987E+03  2.288E+00  5.529E+01  5.593E-01  8.256E-01
   1   13    8     7     2    1.4861E+02  1.9795E+00   1.4664E+02  0.000E+00  0.000E+00  0.000E+00  1.03478E+03  2.279E+00  5.525E+01  6.147E-01  1.073E+00
   1   13    7     7     3    1.4664E+02  1.7024E+00   1.4493E+02  0.000E+00  0.000E+00  0.000E+00  1.02969E+03  2.269E+00  5.521E+01  5.584E-01  1.016E+00
   1   13    6     8     1    1.5844E+02  1.0836E+00   1.5736E+02  0.000E+00  0.000E+00  0.000E+00  1.02475E+03  2.872E+00  4.164E+01  4.243E-01  8.513E-01
   1   13    5     8     2    1.5736E+02  3.3322E-01   1.5702E+02  0.000E+00  0.000E+00  0.000E+00  1.01849E+03  2.867E+00  4.157E+01  4.236E-01  2.622E-01
   1   13    4     8     3    1.5702E+02 -1.8886E+00   1.5891E+02  0.000E+00  0.000E+00  0.000E+00  1.01225E+03  2.872E+00  4.164E+01  4.244E+00 -1.483E-01
   1   13    3     8     4    1.5891E+02 -3.3731E+00   1.6228E+02  0.000E+00  0.000E+00  0.000E+00  1.00601E+03  2.890E+00  4.190E+01  4.270E+00 -2.633E-01
   1   13    2     8     5    1.6228E+02 -2.5099E+00   1.6479E+02  0.000E+00  0.000E+00  0.000E+00  9.99785E+02  2.910E+00  4.219E+01  4.299E+00 -1.946E-01
   1   13    1     8     6    1.6479E+02 -1.9647E+00   1.6676E+02  0.000E+00  0.000E+00  0.000E+00  9.94799E+02  2.924E+00  4.241E+01  2.593E+00 -2.526E-01
   1    8    6     9     1    0.0000E+00  0.0000E+00   0.0000E+00  0.000E+00  0.000E+00  0.000E+00  1.07875E+03  0.000E+00  4.000E+00  0.000E+00  1.000E+00
   1    8    5     9     2    0.0000E+00  0.0000E+00   0.0000E+00  0.000E+00  0.000E+00  0.000E+00  1.07825E+03  0.000E+00  4.000E+00  0.000E+00  1.000E+00





UNSATURATED ZONE PACKAGE VOLUMETRIC BUDGET FOR  TIME STEP    30 STRESS PERIOD   37
  ------------------------------------------------------------------------------



     CUMULATIVE VOLUMES      L**3       RATES FOR THIS TIME STEP      L**3/T
     ------------------                 ------------------------

           IN:                                      IN:
           ---                                      ---
        INFILTRATION =  1288124652.4508          INFILTRATION =           0.8475

          OUT:                                     OUT:
          ----                                     ----
              UZF ET =  1282713983.0667                UZF ET =           0.7500
        UZF RECHARGE =       73224.0000          UZF RECHARGE =       0.0000E+00

            IN - OUT =     5337445.3841              IN - OUT =       9.7500E-02

          STORAGE:                                 STORAGE:
          --------                                 --------
      STORAGE CHANGE =     5337448.5447        STORAGE CHANGE =       9.7500E-02

 PERCENT DISCREPANCY IS DIFFERENCE BETWEEN IN-OUT MINUS CHANGE IN STORAGE
 DIVIDED BY THE AVERAGE OF IN AND OUT TIMES 100

 PERCENT DISCREPANCY =           0.00     PERCENT DISCREPANCY =           0.00






1
  VOLUMETRIC BUDGET FOR AGRICULTURAL FIELDS AT  END OF TIME STEP   30, STRESS PERIOD  37
  ------------------------------------------------------------------------------

     CUMULATIVE VOLUMES      L**3       RATES FOR THIS TIME STEP      L**3/T
     ------------------                 ------------------------

           IN:                                      IN:
           ---                                      ---
           AG WELLS      =   605950784.0000             AG WELLS      =           0.0000
      DIVERSION SEGMENTS =   601916864.0000        DIVERSION SEGMENTS =           0.0000
           GW IRRIGATION =           0.0000             GW IRRIGATION =           0.0000
           SW IRRIGATION =           0.0000             SW IRRIGATION =           0.0000
        SYSTEM LOSSES GW =           0.0000          SYSTEM LOSSES GW =           0.0000
        SYSTEM LOSSES SW =           0.0000          SYSTEM LOSSES SW =           0.0000

                TOTAL IN =  1207867648.0000                  TOTAL IN =           0.0000

          OUT:                                     OUT:
          ----                                     ----
           AG WELLS      =           0.0000             AG WELLS      =           0.0000
      DIVERSION SEGMENTS =           0.0000        DIVERSION SEGMENTS =           0.0000
           GW IRRIGATION =   605950784.0000             GW IRRIGATION =           0.0000
           SW IRRIGATION =   601926656.0000             SW IRRIGATION =           0.0000
        SYSTEM LOSSES GW =           0.0000          SYSTEM LOSSES GW =           0.0000
        SYSTEM LOSSES SW =           0.0000          SYSTEM LOSSES SW =           0.0000

               TOTAL OUT =  1207877376.0000                 TOTAL OUT =           0.0000

                IN - OUT =       -9728.0000                  IN - OUT =           0.0000

     PERCENT DISCREPANCY =          -0.00         PERCENT DISCREPANCY =           0.00



1
  VOLUMETRIC BUDGET FOR ENTIRE MODEL AT END OF TIME STEP   30, STRESS PERIOD  37
  ------------------------------------------------------------------------------

     CUMULATIVE VOLUMES      L**3       RATES FOR THIS TIME STEP      L**3/T
     ------------------                 ------------------------

           IN:                                      IN:
           ---                                      ---
             STORAGE     =   887675072.0000               STORAGE     =           3.2706
       CONSTANT HEAD     =           0.0000         CONSTANT HEAD     =           0.0000
     HEAD DEP BOUNDS     =    27321540.0000       HEAD DEP BOUNDS     =           0.2891
      STREAM LEAKAGE     =  1118583808.0000        STREAM LEAKAGE     =          11.6016
        UZF RECHARGE     =       73223.9531          UZF RECHARGE     =           0.0000
               GW ET     =           0.0000                 GW ET     =           0.0000
     SURFACE LEAKAGE     =           0.0000       SURFACE LEAKAGE     =           0.0000
           AG WELLS      =           0.0000             AG WELLS      =           0.0000

                TOTAL IN =  2033653632.0000                  TOTAL IN =          15.1613

          OUT:                                     OUT:
          ----                                     ----
             STORAGE     =   442680448.0000               STORAGE     =           5.1384
       CONSTANT HEAD     =           0.0000         CONSTANT HEAD     =           0.0000
     HEAD DEP BOUNDS     =    27275070.0000       HEAD DEP BOUNDS     =           0.2872
      STREAM LEAKAGE     =   957758592.0000        STREAM LEAKAGE     =           9.7362
        UZF RECHARGE     =           0.0000          UZF RECHARGE     =           0.0000
               GW ET     =           0.0000                 GW ET     =           0.0000
     SURFACE LEAKAGE     =           0.0000       SURFACE LEAKAGE     =           0.0000
           AG WELLS      =   605950784.0000             AG WELLS      =           0.0000

               TOTAL OUT =  2033664768.0000                 TOTAL OUT =          15.1618

                IN - OUT =      -11136.0000                  IN - OUT =      -5.3024E-04

     PERCENT DISCREPANCY =          -0.00         PERCENT DISCREPANCY =          -0.00






         TIME SUMMARY AT END OF TIME STEP   30 IN STRESS PERIOD   37
                    SECONDS     MINUTES      HOURS       DAYS        YEARS
                    -----------------------------------------------------------
   TIME STEP LENGTH  87667.      1461.1      24.352      1.0147     2.77799E-03
 STRESS PERIOD TIME 2.63000E+06  43833.      730.56      30.440     8.33397E-02
         TOTAL TIME 9.47660E+07 1.57943E+06  26324.      1096.8      3.0030    
1
1
                            STRESS PERIOD NO.   38, LENGTH =   2630000.    
                            -----------------------------------------------

                              NUMBER OF TIME STEPS =    30

                               MULTIPLIER FOR DELT =     1.000

                            INITIAL TIME STEP SIZE =   87666.66    

 REUSING NON-PARAMETER GHB CELLS FROM LAST STRESS PERIOD

      2 GHB CELLS

 REUSING STREAM SEGMENT DATA FROM LAST STRESS PERIOD



            AREAL INFILTRATION RATE
 READING ON UNIT   19 WITH FORMAT: (FREE)              

            1           2           3           4           5           6           7           8           9          10
 ........................................................................................................................
   1   1.0000E-10  2.0000E-10   0.000       0.000       0.000       0.000       0.000       0.000       0.000       0.000    
   2   2.0000E-10  1.0000E-10  2.0000E-10   0.000       0.000      8.0000E-10  8.0000E-10  5.0000E-10   0.000       0.000    
   3    0.000      5.0000E-10  1.0000E-10  1.0000E-10  8.0000E-10  8.0000E-10  5.0000E-10  5.0000E-10   0.000       0.000    
   4   8.0000E-10  5.0000E-10  1.0000E-10  1.0000E-10  1.0000E-10  1.0000E-10  1.0000E-10  1.0000E-10  2.0000E-10   0.000    
   5   8.0000E-10  5.0000E-10  1.0000E-10  1.0000E-10  1.0000E-10  1.0000E-10  1.0000E-10  1.0000E-10  1.0000E-10  1.0000E-10
   6   8.0000E-10  5.0000E-10  5.0000E-10  2.0000E-10  2.0000E-10  1.0000E-10  1.0000E-10  1.0000E-10  1.0000E-10  5.0000E-10
   7   8.0000E-10  5.0000E-10  5.0000E-10  2.0000E-10  2.0000E-10  1.0000E-10  1.0000E-10  2.0000E-10  2.0000E-10   0.000    
   8    0.000      5.0000E-10  5.0000E-10  2.0000E-10  2.0000E-10  1.0000E-10  1.0000E-10  2.0000E-10  5.0000E-10   0.000    
   9    0.000      5.0000E-10  5.0000E-10  2.0000E-10  2.0000E-10  1.0000E-10  1.0000E-10  2.0000E-10  5.0000E-10   0.000    
  10    0.000      5.0000E-10  5.0000E-10  2.0000E-10  2.0000E-10  1.0000E-10  1.0000E-10  2.0000E-10  5.0000E-10  8.0000E-10
  11    0.000      1.0000E-10  1.0000E-10  1.0000E-10  1.0000E-10  1.0000E-10  1.0000E-10  2.0000E-10  5.0000E-10   0.000    
  12   1.0000E-10  1.0000E-10  1.0000E-10  1.0000E-10  1.0000E-10  1.0000E-10  1.0000E-10  1.0000E-10  2.0000E-10   0.000    
  13   1.0000E-10  1.0000E-10  2.0000E-10  2.0000E-10  2.0000E-10  2.0000E-10  2.0000E-10  1.0000E-10  1.0000E-10   0.000    
  14    0.000      2.0000E-10  5.0000E-10  5.0000E-10  5.0000E-10  5.0000E-10  5.0000E-10  2.0000E-10  1.0000E-10   0.000    
  15    0.000       0.000      8.0000E-10  8.0000E-10  8.0000E-10  8.0000E-10   0.000       0.000       0.000       0.000    

                  ET RATE =  5.000000E-10

 USING ET EXTINCTION DEPTH FROM PREVIOUS STRESS PERIOD. CURRENT PERIOD IS:      38

 USING EXTINCTION WATER CONTENT FROM PREVIOUS STRESS PERIOD. CURRENT PERIOD IS:      38

 USING AIR ENTRY PRESSURE FROM PREVIOUS STRESS PERIOD. CURRENT PERIOD IS:      38

 USING ROOT PRESSURE HEAD FROM PREVIOUS STRESS PERIOD. CURRENT PERIOD IS:      38

 USING ROOT ACTIVITY FROM PREVIOUS STRESS PERIOD. CURRENT PERIOD IS:      38

 PROCESSING AG STRESS PERIOD DATA

 READING AG STRESS PERIOD DATA

 READING IRRIGATION SEGMENT

 READING IRRIGATION WELL

 READING SUPPLEMENTAL WELL

 END PROCESSING AG STRESS PERIOD DATA OPTIONS
 
 SOLVING FOR HEAD 
                                                   Max.-Head-Change                         Max.-Flux-Residual
  Residual-Control   Outer-Iter.   Inner-Iter.     Column Row Layer    Maximum-Head-Change  Column Row Layer    Maximum-Flux-Residual          L2-NORM 
          0                 1           2             4    7     1       0.1182365540E-01       4    7    1         0.6209364872E+00      0.1446915794E+01
          0                 2           2             4    7     1      -0.1150122496E-02       4    7    1        -0.6209386755E-01      0.1446910470E+00
          0                 3           1             4    7     1       0.7831904883E-04       4    7    1         0.4346570531E-02      0.1012831173E-01

    ------------------------------------------------
       NWT REQUIRED            3 OUTER ITERATIONS 
       AND A TOTAL OF          5 INNER ITERATIONS.
    ------------------------------------------------

 NO OUTPUT CONTROL FOR STRESS PERIOD   38   TIME STEP    1
 
 SOLVING FOR HEAD 
                                                   Max.-Head-Change                         Max.-Flux-Residual
  Residual-Control   Outer-Iter.   Inner-Iter.     Column Row Layer    Maximum-Head-Change  Column Row Layer    Maximum-Flux-Residual          L2-NORM 
          0                 1           2             4    7     1       0.1169895029E-01       4    7    1         0.6143428777E+00      0.1437564446E+01
          0                 2           2             4    7     1      -0.1137992004E-02       4    7    1        -0.6143450085E-01      0.1437527709E+00
          0                 3           1             4    7     1       0.7749300835E-04       4    7    1         0.4300414906E-02      0.1006236035E-01

    ------------------------------------------------
       NWT REQUIRED            3 OUTER ITERATIONS 
       AND A TOTAL OF          5 INNER ITERATIONS.
    ------------------------------------------------

 NO OUTPUT CONTROL FOR STRESS PERIOD   38   TIME STEP    2
 
 SOLVING FOR HEAD 
                                                   Max.-Head-Change                         Max.-Flux-Residual
  Residual-Control   Outer-Iter.   Inner-Iter.     Column Row Layer    Maximum-Head-Change  Column Row Layer    Maximum-Flux-Residual          L2-NORM 
          0                 1           2             4    7     1       0.1157622379E-01       4    7    1         0.6078550942E+00      0.1429297412E+01
          0                 2           2             4    7     1      -0.1126053980E-02       4    7    1        -0.6078571694E-01      0.1429207747E+00
          0                 3           1             4    7     1       0.7668007388E-04       4    7    1         0.4255000066E-02      0.1000354374E-01

    ------------------------------------------------
       NWT REQUIRED            3 OUTER ITERATIONS 
       AND A TOTAL OF          5 INNER ITERATIONS.
    ------------------------------------------------

 NO OUTPUT CONTROL FOR STRESS PERIOD   38   TIME STEP    3
 
 SOLVING FOR HEAD 
                                                   Max.-Head-Change                         Max.-Flux-Residual
  Residual-Control   Outer-Iter.   Inner-Iter.     Column Row Layer    Maximum-Head-Change  Column Row Layer    Maximum-Flux-Residual          L2-NORM 
          0                 1           2             4    7     1       0.1145556160E-01       4    7    1         0.6014772261E+00      0.1417909094E+01
          0                 2           2             4    7     1      -0.1114316760E-02       4    7    1        -0.6014792477E-01      0.1417823696E+00
          0                 3           1             4    7     1       0.7588081321E-04       4    7    1         0.4210354643E-02      0.9923896214E-02

    ------------------------------------------------
       NWT REQUIRED            3 OUTER ITERATIONS 
       AND A TOTAL OF          5 INNER ITERATIONS.
    ------------------------------------------------

 NO OUTPUT CONTROL FOR STRESS PERIOD   38   TIME STEP    4
 
 SOLVING FOR HEAD 
                                                   Max.-Head-Change                         Max.-Flux-Residual
  Residual-Control   Outer-Iter.   Inner-Iter.     Column Row Layer    Maximum-Head-Change  Column Row Layer    Maximum-Flux-Residual          L2-NORM 
          0                 1           2             4    7     1       0.1133705037E-01       4    7    1         0.5952137177E+00      0.1406723139E+01
          0                 2           2             4    7     1      -0.1102788772E-02       4    7    1        -0.5952156871E-01      0.1406646499E+00
          0                 3           1             4    7     1       0.7509580087E-04       4    7    1         0.4166509737E-02      0.9845780849E-02

    ------------------------------------------------
       NWT REQUIRED            3 OUTER ITERATIONS 
       AND A TOTAL OF          5 INNER ITERATIONS.
    ------------------------------------------------

 NO OUTPUT CONTROL FOR STRESS PERIOD   38   TIME STEP    5
 
 SOLVING FOR HEAD 
                                                   Max.-Head-Change                         Max.-Flux-Residual
  Residual-Control   Outer-Iter.   Inner-Iter.     Column Row Layer    Maximum-Head-Change  Column Row Layer    Maximum-Flux-Residual          L2-NORM 
          0                 1           2             4    7     1       0.1122049589E-01       4    7    1         0.5890544049E+00      0.1395713354E+01
          0                 2           2             4    7     1      -0.1091451126E-02       4    7    1        -0.5890563240E-01      0.1395645490E+00
          0                 3           1             4    7     1       0.7432375053E-04       4    7    1         0.4123394251E-02      0.9768881440E-02

    ------------------------------------------------
       NWT REQUIRED            3 OUTER ITERATIONS 
       AND A TOTAL OF          5 INNER ITERATIONS.
    ------------------------------------------------

 NO OUTPUT CONTROL FOR STRESS PERIOD   38   TIME STEP    6
 
 SOLVING FOR HEAD 
                                                   Max.-Head-Change                         Max.-Flux-Residual
  Residual-Control   Outer-Iter.   Inner-Iter.     Column Row Layer    Maximum-Head-Change  Column Row Layer    Maximum-Flux-Residual          L2-NORM 
          0                 1           2             4    7     1       0.1110584739E-01       4    7    1         0.5829965464E+00      0.1384873824E+01
          0                 2           2             4    7     1      -0.1080298881E-02       4    7    1        -0.5829984168E-01      0.1384813176E+00
          0                 3           1             4    7     1       0.7356432387E-04       4    7    1         0.4080988904E-02      0.9693175446E-02

    ------------------------------------------------
       NWT REQUIRED            3 OUTER ITERATIONS 
       AND A TOTAL OF          5 INNER ITERATIONS.
    ------------------------------------------------

 NO OUTPUT CONTROL FOR STRESS PERIOD   38   TIME STEP    7
 
 SOLVING FOR HEAD 
                                                   Max.-Head-Change                         Max.-Flux-Residual
  Residual-Control   Outer-Iter.   Inner-Iter.     Column Row Layer    Maximum-Head-Change  Column Row Layer    Maximum-Flux-Residual          L2-NORM 
          0                 1           2             4    7     1       0.1099319773E-01       4    7    1         0.5770448386E+00      0.1374214887E+01
          0                 2           2             4    7     1      -0.1069341070E-02       4    7    1        -0.5770466618E-01      0.1374160078E+00
          0                 3           1             4    7     1       0.7281813836E-04       4    7    1         0.4039326659E-02      0.9618625078E-02

    ------------------------------------------------
       NWT REQUIRED            3 OUTER ITERATIONS 
       AND A TOTAL OF          5 INNER ITERATIONS.
    ------------------------------------------------

 NO OUTPUT CONTROL FOR STRESS PERIOD   38   TIME STEP    8
 
 SOLVING FOR HEAD 
                                                   Max.-Head-Change                         Max.-Flux-Residual
  Residual-Control   Outer-Iter.   Inner-Iter.     Column Row Layer    Maximum-Head-Change  Column Row Layer    Maximum-Flux-Residual          L2-NORM 
          0                 1           2             4    7     1       0.1088222410E-01       4    7    1         0.5711821087E+00      0.1363716366E+01
          0                 2           2             4    7     1      -0.1058546295E-02       4    7    1        -0.5711838861E-01      0.1363666948E+00
          0                 3           1             4    7     1       0.7208305509E-04       4    7    1         0.3998287245E-02      0.9545232852E-02

    ------------------------------------------------
       NWT REQUIRED            3 OUTER ITERATIONS 
       AND A TOTAL OF          5 INNER ITERATIONS.
    ------------------------------------------------

 NO OUTPUT CONTROL FOR STRESS PERIOD   38   TIME STEP    9
 
 SOLVING FOR HEAD 
                                                   Max.-Head-Change                         Max.-Flux-Residual
  Residual-Control   Outer-Iter.   Inner-Iter.     Column Row Layer    Maximum-Head-Change  Column Row Layer    Maximum-Flux-Residual          L2-NORM 
          0                 1           2             4    7     1       0.1077315494E-01       4    7    1         0.5654209375E+00      0.1353370739E+01
          0                 2           2             4    7     1      -0.1047936774E-02       4    7    1        -0.5654226709E-01      0.1353326185E+00
          0                 3           1             4    7     1       0.7136058685E-04       4    7    1         0.3957958776E-02      0.9472846876E-02

    ------------------------------------------------
       NWT REQUIRED            3 OUTER ITERATIONS 
       AND A TOTAL OF          5 INNER ITERATIONS.
    ------------------------------------------------

 NO OUTPUT CONTROL FOR STRESS PERIOD   38   TIME STEP   10
 
 SOLVING FOR HEAD 
                                                   Max.-Head-Change                         Max.-Flux-Residual
  Residual-Control   Outer-Iter.   Inner-Iter.     Column Row Layer    Maximum-Head-Change  Column Row Layer    Maximum-Flux-Residual          L2-NORM 
          0                 1           2             4    7     1       0.1066594873E-01       4    7    1         0.5597585095E+00      0.1343196457E+01
          0                 2           2             4    7     1      -0.1037508470E-02       4    7    1        -0.5597601999E-01      0.1343155754E+00
          0                 3           1             4    7     1       0.7065045816E-04       4    7    1         0.3918321478E-02      0.9401700653E-02

    ------------------------------------------------
       NWT REQUIRED            3 OUTER ITERATIONS 
       AND A TOTAL OF          5 INNER ITERATIONS.
    ------------------------------------------------

 NO OUTPUT CONTROL FOR STRESS PERIOD   38   TIME STEP   11
 
 SOLVING FOR HEAD 
                                                   Max.-Head-Change                         Max.-Flux-Residual
  Residual-Control   Outer-Iter.   Inner-Iter.     Column Row Layer    Maximum-Head-Change  Column Row Layer    Maximum-Flux-Residual          L2-NORM 
          0                 1           2             4    7     1       0.1056041869E-01       4    7    1         0.5541853435E+00      0.1333161284E+01
          0                 2           2             4    7     1      -0.1027243213E-02       4    7    1        -0.5541869922E-01      0.1333124641E+00
          0                 3           1             4    7     1       0.6995143300E-04       4    7    1         0.3879309058E-02      0.9331540475E-02

    ------------------------------------------------
       NWT REQUIRED            3 OUTER ITERATIONS 
       AND A TOTAL OF          5 INNER ITERATIONS.
    ------------------------------------------------

 NO OUTPUT CONTROL FOR STRESS PERIOD   38   TIME STEP   12
 
 SOLVING FOR HEAD 
                                                   Max.-Head-Change                         Max.-Flux-Residual
  Residual-Control   Outer-Iter.   Inner-Iter.     Column Row Layer    Maximum-Head-Change  Column Row Layer    Maximum-Flux-Residual          L2-NORM 
          0                 1           2             4    7     1       0.1045652702E-01       4    7    1         0.5486990838E+00      0.1323276202E+01
          0                 2           2             4    7     1      -0.1017137328E-02       4    7    1        -0.5487006921E-01      0.1323242672E+00
          0                 3           1             4    7     1       0.6926326038E-04       4    7    1         0.3840904987E-02      0.9262362650E-02

    ------------------------------------------------
       NWT REQUIRED            3 OUTER ITERATIONS 
       AND A TOTAL OF          5 INNER ITERATIONS.
    ------------------------------------------------

 NO OUTPUT CONTROL FOR STRESS PERIOD   38   TIME STEP   13
 
 SOLVING FOR HEAD 
                                                   Max.-Head-Change                         Max.-Flux-Residual
  Residual-Control   Outer-Iter.   Inner-Iter.     Column Row Layer    Maximum-Head-Change  Column Row Layer    Maximum-Flux-Residual          L2-NORM 
          0                 1           2             4    7     1       0.1035436878E-01       4    7    1         0.5433051014E+00      0.1313533963E+01
          0                 2           2             4    7     1      -0.1007200059E-02       4    7    1        -0.5433066709E-01      0.1313503388E+00
          0                 3           1             4    7     1       0.6858656937E-04       4    7    1         0.3803146844E-02      0.9194228628E-02

    ------------------------------------------------
       NWT REQUIRED            3 OUTER ITERATIONS 
       AND A TOTAL OF          5 INNER ITERATIONS.
    ------------------------------------------------

 NO OUTPUT CONTROL FOR STRESS PERIOD   38   TIME STEP   14
 
 SOLVING FOR HEAD 
                                                   Max.-Head-Change                         Max.-Flux-Residual
  Residual-Control   Outer-Iter.   Inner-Iter.     Column Row Layer    Maximum-Head-Change  Column Row Layer    Maximum-Flux-Residual          L2-NORM 
          0                 1           2             4    7     1       0.1025376983E-01       4    7    1         0.5379936642E+00      0.1303935460E+01
          0                 2           2             4    7     1      -0.9974144681E-03       4    7    1        -0.5379951957E-01      0.1303907424E+00
          0                 3           1             4    7     1       0.6792020761E-04       4    7    1         0.3765966538E-02      0.9127096977E-02

    ------------------------------------------------
       NWT REQUIRED            3 OUTER ITERATIONS 
       AND A TOTAL OF          5 INNER ITERATIONS.
    ------------------------------------------------

 NO OUTPUT CONTROL FOR STRESS PERIOD   38   TIME STEP   15
 
 SOLVING FOR HEAD 
                                                   Max.-Head-Change                         Max.-Flux-Residual
  Residual-Control   Outer-Iter.   Inner-Iter.     Column Row Layer    Maximum-Head-Change  Column Row Layer    Maximum-Flux-Residual          L2-NORM 
          0                 1           2             4    7     1       0.1015482828E-01       4    7    1         0.5327704038E+00      0.1294477100E+01
          0                 2           2             4    7     1      -0.9877900989E-03       4    7    1        -0.5327718985E-01      0.1294451628E+00
          0                 3           1             4    7     1       0.6726482453E-04       4    7    1         0.3729403501E-02      0.9060929804E-02

    ------------------------------------------------
       NWT REQUIRED            3 OUTER ITERATIONS 
       AND A TOTAL OF          5 INNER ITERATIONS.
    ------------------------------------------------

 NO OUTPUT CONTROL FOR STRESS PERIOD   38   TIME STEP   16
 
 SOLVING FOR HEAD 
                                                   Max.-Head-Change                         Max.-Flux-Residual
  Residual-Control   Outer-Iter.   Inner-Iter.     Column Row Layer    Maximum-Head-Change  Column Row Layer    Maximum-Flux-Residual          L2-NORM 
          0                 1           2             4    7     1       0.1005736656E-01       4    7    1         0.5276257465E+00      0.1285146729E+01
          0                 2           2             4    7     1      -0.9783096791E-03       4    7    1        -0.5276272056E-01      0.1285123275E+00
          0                 3           1             4    7     1       0.6661924351E-04       4    7    1         0.3693390664E-02      0.8995655219E-02

    ------------------------------------------------
       NWT REQUIRED            3 OUTER ITERATIONS 
       AND A TOTAL OF          5 INNER ITERATIONS.
    ------------------------------------------------

 NO OUTPUT CONTROL FOR STRESS PERIOD   38   TIME STEP   17
 
 SOLVING FOR HEAD 
                                                   Max.-Head-Change                         Max.-Flux-Residual
  Residual-Control   Outer-Iter.   Inner-Iter.     Column Row Layer    Maximum-Head-Change  Column Row Layer    Maximum-Flux-Residual          L2-NORM 
          0                 1           2             4    7     1       0.9961490146E-02       4    7    1         0.5225651473E+00      0.1275952029E+01
          0                 2           2             4    7     1      -0.9689834661E-03       4    7    1        -0.5225665715E-01      0.1275930380E+00
          0                 3           1             4    7     1       0.6598416297E-04       4    7    1         0.3657966219E-02      0.8931334863E-02

    ------------------------------------------------
       NWT REQUIRED            3 OUTER ITERATIONS 
       AND A TOTAL OF          5 INNER ITERATIONS.
    ------------------------------------------------

 NO OUTPUT CONTROL FOR STRESS PERIOD   38   TIME STEP   18
 
 SOLVING FOR HEAD 
                                                   Max.-Head-Change                         Max.-Flux-Residual
  Residual-Control   Outer-Iter.   Inner-Iter.     Column Row Layer    Maximum-Head-Change  Column Row Layer    Maximum-Flux-Residual          L2-NORM 
          0                 1           2             4    7     1       0.9867157789E-02       4    7    1         0.5175867433E+00      0.1266885787E+01
          0                 2           2             4    7     1      -0.9598074508E-03       4    7    1        -0.5175881341E-01      0.1266865720E+00
          0                 3           1             4    7     1       0.6535931110E-04       4    7    1         0.3623117189E-02      0.8867862960E-02

    ------------------------------------------------
       NWT REQUIRED            3 OUTER ITERATIONS 
       AND A TOTAL OF          5 INNER ITERATIONS.
    ------------------------------------------------

 NO OUTPUT CONTROL FOR STRESS PERIOD   38   TIME STEP   19
 
 SOLVING FOR HEAD 
                                                   Max.-Head-Change                         Max.-Flux-Residual
  Residual-Control   Outer-Iter.   Inner-Iter.     Column Row Layer    Maximum-Head-Change  Column Row Layer    Maximum-Flux-Residual          L2-NORM 
          0                 1           2             4    7     1       0.9774197316E-02       4    7    1         0.5126810654E+00      0.1257938040E+01
          0                 2           2             4    7     1      -0.9507648836E-03       4    7    1        -0.5126824235E-01      0.1257919499E+00
          0                 3           1             4    7     1       0.6474354653E-04       4    7    1         0.3588777237E-02      0.8805266380E-02

    ------------------------------------------------
       NWT REQUIRED            3 OUTER ITERATIONS 
       AND A TOTAL OF          5 INNER ITERATIONS.
    ------------------------------------------------

 NO OUTPUT CONTROL FOR STRESS PERIOD   38   TIME STEP   20
 
 SOLVING FOR HEAD 
                                                   Max.-Head-Change                         Max.-Flux-Residual
  Residual-Control   Outer-Iter.   Inner-Iter.     Column Row Layer    Maximum-Head-Change  Column Row Layer    Maximum-Flux-Residual          L2-NORM 
          0                 1           2             4    7     1       0.9682582925E-02       4    7    1         0.5078465173E+00      0.1249116503E+01
          0                 2           2             4    7     1      -0.9418532547E-03       4    7    1        -0.5078478438E-01      0.1249099480E+00
          0                 3           1             4    7     1       0.6413669816E-04       4    7    1         0.3554935188E-02      0.8743544122E-02

    ------------------------------------------------
       NWT REQUIRED            3 OUTER ITERATIONS 
       AND A TOTAL OF          5 INNER ITERATIONS.
    ------------------------------------------------

 NO OUTPUT CONTROL FOR STRESS PERIOD   38   TIME STEP   21
 
 SOLVING FOR HEAD 
                                                   Max.-Head-Change                         Max.-Flux-Residual
  Residual-Control   Outer-Iter.   Inner-Iter.     Column Row Layer    Maximum-Head-Change  Column Row Layer    Maximum-Flux-Residual          L2-NORM 
          0                 1           2             4    7     1       0.9592417562E-02       4    7    1         0.5030890929E+00      0.1240421338E+01
          0                 2           2             4    7     1      -0.9330825777E-03       4    7    1        -0.5030903885E-01      0.1240405875E+00
          0                 3           1             4    7     1       0.6353944759E-04       4    7    1         0.3521633009E-02      0.8682638058E-02

    ------------------------------------------------
       NWT REQUIRED            3 OUTER ITERATIONS 
       AND A TOTAL OF          5 INNER ITERATIONS.
    ------------------------------------------------

 NO OUTPUT CONTROL FOR STRESS PERIOD   38   TIME STEP   22
 
 SOLVING FOR HEAD 
                                                   Max.-Head-Change                         Max.-Flux-Residual
  Residual-Control   Outer-Iter.   Inner-Iter.     Column Row Layer    Maximum-Head-Change  Column Row Layer    Maximum-Flux-Residual          L2-NORM 
          0                 1           2             4    7     1       0.9503665347E-02       4    7    1         0.4984067984E+00      0.1231832488E+01
          0                 2           2             4    7     1      -0.9244493638E-03       4    7    1        -0.4984080644E-01      0.1231817297E+00
          0                 3           1             4    7     1       0.6295155852E-04       4    7    1         0.3488856765E-02      0.8622570904E-02

    ------------------------------------------------
       NWT REQUIRED            3 OUTER ITERATIONS 
       AND A TOTAL OF          5 INNER ITERATIONS.
    ------------------------------------------------

 NO OUTPUT CONTROL FOR STRESS PERIOD   38   TIME STEP   23
 
 SOLVING FOR HEAD 
                                                   Max.-Head-Change                         Max.-Flux-Residual
  Residual-Control   Outer-Iter.   Inner-Iter.     Column Row Layer    Maximum-Head-Change  Column Row Layer    Maximum-Flux-Residual          L2-NORM 
          0                 1           2             4    7     1       0.9416298120E-02       4    7    1         0.4937977735E+00      0.1223375867E+01
          0                 2           2             4    7     1      -0.9159508719E-03       4    7    1        -0.4937990104E-01      0.1223361610E+00
          0                 3           1             4    7     1       0.6237284315E-04       4    7    1         0.3456593401E-02      0.8563385853E-02

    ------------------------------------------------
       NWT REQUIRED            3 OUTER ITERATIONS 
       AND A TOTAL OF          5 INNER ITERATIONS.
    ------------------------------------------------

 NO OUTPUT CONTROL FOR STRESS PERIOD   38   TIME STEP   24
 
 SOLVING FOR HEAD 
                                                   Max.-Head-Change                         Max.-Flux-Residual
  Residual-Control   Outer-Iter.   Inner-Iter.     Column Row Layer    Maximum-Head-Change  Column Row Layer    Maximum-Flux-Residual          L2-NORM 
          0                 1           2             4    7     1       0.9330146087E-02       4    7    1         0.4892532263E+00      0.1215021506E+01
          0                 2           2             4    7     1      -0.9075705862E-03       4    7    1        -0.4892544350E-01      0.1215008466E+00
          0                 3           1             4    7     1       0.6180217655E-04       4    7    1         0.3424781370E-02      0.8504942276E-02

    ------------------------------------------------
       NWT REQUIRED            3 OUTER ITERATIONS 
       AND A TOTAL OF          5 INNER ITERATIONS.
    ------------------------------------------------

 NO OUTPUT CONTROL FOR STRESS PERIOD   38   TIME STEP   25
 
 SOLVING FOR HEAD 
                                                   Max.-Head-Change                         Max.-Flux-Residual
  Residual-Control   Outer-Iter.   Inner-Iter.     Column Row Layer    Maximum-Head-Change  Column Row Layer    Maximum-Flux-Residual          L2-NORM 
          0                 1           2             4    7     1       0.9245317381E-02       4    7    1         0.4847790169E+00      0.1206777603E+01
          0                 2           2             4    7     1      -0.8993190262E-03       4    7    1        -0.4847801984E-01      0.1206765223E+00
          0                 3           1             4    7     1       0.6124027646E-04       4    7    1         0.3393461735E-02      0.8447257662E-02

    ------------------------------------------------
       NWT REQUIRED            3 OUTER ITERATIONS 
       AND A TOTAL OF          5 INNER ITERATIONS.
    ------------------------------------------------

 NO OUTPUT CONTROL FOR STRESS PERIOD   38   TIME STEP   26
 
 SOLVING FOR HEAD 
                                                   Max.-Head-Change                         Max.-Flux-Residual
  Residual-Control   Outer-Iter.   Inner-Iter.     Column Row Layer    Maximum-Head-Change  Column Row Layer    Maximum-Flux-Residual          L2-NORM 
          0                 1           2             4    7     1       0.9161786224E-02       4    7    1         0.4803734201E+00      0.1198650833E+01
          0                 2           2             4    7     1      -0.8911936831E-03       4    7    1        -0.4803745749E-01      0.1198639113E+00
          0                 3           1             4    7     1       0.6068697139E-04       4    7    1         0.3362622391E-02      0.8390380535E-02

    ------------------------------------------------
       NWT REQUIRED            3 OUTER ITERATIONS 
       AND A TOTAL OF          5 INNER ITERATIONS.
    ------------------------------------------------

 NO OUTPUT CONTROL FOR STRESS PERIOD   38   TIME STEP   27
 
 SOLVING FOR HEAD 
                                                   Max.-Head-Change                         Max.-Flux-Residual
  Residual-Control   Outer-Iter.   Inner-Iter.     Column Row Layer    Maximum-Head-Change  Column Row Layer    Maximum-Flux-Residual          L2-NORM 
          0                 1           2             4    7     1       0.9079519531E-02       4    7    1         0.4760350993E+00      0.1190627219E+01
          0                 2           2             4    7     1      -0.8831913391E-03       4    7    1        -0.4760362284E-01      0.1190616028E+00
          0                 3           1             4    7     1       0.6014204183E-04       4    7    1         0.3332253980E-02      0.8334204420E-02

    ------------------------------------------------
       NWT REQUIRED            3 OUTER ITERATIONS 
       AND A TOTAL OF          5 INNER ITERATIONS.
    ------------------------------------------------

 NO OUTPUT CONTROL FOR STRESS PERIOD   38   TIME STEP   28
 
 SOLVING FOR HEAD 
                                                   Max.-Head-Change                         Max.-Flux-Residual
  Residual-Control   Outer-Iter.   Inner-Iter.     Column Row Layer    Maximum-Head-Change  Column Row Layer    Maximum-Flux-Residual          L2-NORM 
          0                 1           2             4    7     1       0.8998354430E-02       4    7    1         0.4717550066E+00      0.1182710535E+01
          0                 2           2             4    7     1      -0.8752961508E-03       4    7    1        -0.4717561106E-01      0.1182700127E+00
          0                 3           1             4    7     1       0.5960440903E-04       4    7    1         0.3302293162E-02      0.8278800808E-02

    ------------------------------------------------
       NWT REQUIRED            3 OUTER ITERATIONS 
       AND A TOTAL OF          5 INNER ITERATIONS.
    ------------------------------------------------

 NO OUTPUT CONTROL FOR STRESS PERIOD   38   TIME STEP   29
 
 SOLVING FOR HEAD 
                                                   Max.-Head-Change                         Max.-Flux-Residual
  Residual-Control   Outer-Iter.   Inner-Iter.     Column Row Layer    Maximum-Head-Change  Column Row Layer    Maximum-Flux-Residual          L2-NORM 
          0                 1           2             4    7     1       0.8918405491E-02       4    7    1         0.4675393622E+00      0.1174893038E+01
          0                 2           2             4    7     1      -0.8675192627E-03       4    7    1        -0.4675404416E-01      0.1174882917E+00
          0                 3           1             4    7     1       0.5907483187E-04       4    7    1         0.3272783479E-02      0.8224099038E-02

    ------------------------------------------------
       NWT REQUIRED            3 OUTER ITERATIONS 
       AND A TOTAL OF          5 INNER ITERATIONS.
    ------------------------------------------------

 NO OUTPUT CONTROL FOR STRESS PERIOD   38   TIME STEP   30



 STREAM LISTING     PERIOD     38   STEP       30

 LAYER ROW COL. STREAM  RCH.  FLOW INTO     FLOW TO   FLOW OUT OF   OVRLND.     DIRECT     STREAM       STREAM     STREAM     STREAM   STREAMBED  STREAMBED
                SEG.NO.  NO.  STRM. RCH.    AQUIFER    STRM. RCH.    RUNOFF     PRECIP       ET          HEAD       DEPTH      WIDTH   CONDCTNC.   GRADIENT

   1    1    1     1     1    7.1248E+00  1.2038E-01   7.0044E+00  0.000E+00  0.000E+00  0.000E+00  1.09385E+03  8.024E-01  7.035E+00  3.166E-02  1.267E+00
   1    2    2     1     2    7.0044E+00  1.8491E-01   6.8195E+00  0.000E+00  0.000E+00  0.000E+00  1.08886E+03  7.976E-01  6.956E+00  4.869E-02  1.266E+00
   1    3    3     1     3    6.8195E+00  1.5635E-01   6.6631E+00  0.000E+00  0.000E+00  0.000E+00  1.08321E+03  7.928E-01  6.870E+00  4.122E-02  1.264E+00
   1    3    4     1     4    6.6631E+00  1.4286E-01   6.5203E+00  0.000E+00  0.000E+00  0.000E+00  1.07820E+03  7.886E-01  6.794E+00  3.771E-02  1.263E+00
   1    4    5     2     1    4.5203E+00  2.6715E-01   4.2531E+00  0.000E+00  0.000E+00  0.000E+00  1.07236E+03  4.250E-01  1.200E+01  7.800E-02  1.142E+00
   1    5    6     2     2    4.2531E+00  2.0467E-01   4.0485E+00  0.000E+00  0.000E+00  0.000E+00  1.06692E+03  4.112E-01  1.200E+01  6.000E-02  1.137E+00
   1    6    6     2     3    4.0485E+00  2.0393E-01   3.8445E+00  0.000E+00  0.000E+00  0.000E+00  1.06219E+03  3.989E-01  1.200E+01  6.000E-02  1.133E+00
   1    7    6     2     4    3.8445E+00  2.0319E-01   3.6413E+00  0.000E+00  0.000E+00  0.000E+00  1.05746E+03  3.864E-01  1.200E+01  6.000E-02  1.129E+00
   1    8    6     2     5    3.6413E+00  2.0242E-01   3.4389E+00  0.000E+00  0.000E+00  0.000E+00  1.05273E+03  3.737E-01  1.200E+01  6.000E-02  1.125E+00
   1    3    5     3     1    2.0000E+00  2.8252E-01   1.7175E+00  0.000E+00  0.000E+00  0.000E+00  1.07555E+03  1.909E+00  9.636E+00  7.227E-02  1.955E+00
   1    3    6     3     2    1.7175E+00  2.4905E-01   1.4684E+00  0.000E+00  0.000E+00  0.000E+00  1.07264E+03  1.727E+00  8.909E+00  6.682E-02  1.864E+00
   1    3    7     3     3    1.4684E+00  1.9718E-01   1.2712E+00  0.000E+00  0.000E+00  0.000E+00  1.06987E+03  1.555E+00  8.218E+00  5.547E-02  1.777E+00
   1    4    8     3     4    1.2712E+00  2.2567E-01   1.0456E+00  0.000E+00  0.000E+00  0.000E+00  1.06682E+03  1.364E+00  7.455E+00  6.709E-02  1.682E+00
   1    5    8     3     5    1.0456E+00  1.5790E-01   8.8768E-01  0.000E+00  0.000E+00  0.000E+00  1.06362E+03  1.164E+00  6.655E+00  4.991E-02  1.582E+00
   1    6    8     3     6    8.8768E-01  5.5980E-02   8.3170E-01  0.000E+00  0.000E+00  0.000E+00  1.06158E+03  1.036E+00  6.145E+00  1.844E-02  1.518E+00
   1    5   10     4     1    1.0000E+01  9.0919E-02   9.9091E+00  0.000E+00  0.000E+00  0.000E+00  1.07836E+03  6.368E-01  1.000E+01  2.500E-02  1.212E+00
   1    5    9     4     2    9.9091E+00  1.8158E-01   9.7275E+00  0.000E+00  0.000E+00  0.000E+00  1.07154E+03  6.315E-01  1.000E+01  5.000E-02  1.211E+00
   1    6    8     4     3    9.7275E+00  1.2689E-01   9.6006E+00  0.000E+00  0.000E+00  0.000E+00  1.06381E+03  6.256E-01  1.000E+01  3.500E-02  1.209E+00
   1    6    8     5     1    1.0432E+01  2.2686E-01   1.0205E+01  0.000E+00  0.000E+00  0.000E+00  1.05868E+03  6.790E-01  1.542E+01  6.166E-02  1.226E+00
   1    7    7     5     2    1.0205E+01  2.7894E-01   9.9265E+00  0.000E+00  0.000E+00  0.000E+00  1.05417E+03  6.732E-01  1.519E+01  7.594E-02  1.224E+00
   1    8    7     5     3    9.9265E+00  1.9221E-01   9.7343E+00  0.000E+00  0.000E+00  0.000E+00  1.04992E+03  6.676E-01  1.497E+01  5.241E-02  1.223E+00
   1    8    6     5     4    9.7343E+00  1.3577E-01   9.5985E+00  0.000E+00  0.000E+00  0.000E+00  1.04691E+03  6.637E-01  1.482E+01  3.706E-02  1.221E+00
   1    9    6     6     1    1.3037E+01  2.2931E-01   1.2808E+01  0.000E+00  0.000E+00  0.000E+00  1.04355E+03  8.218E-01  1.200E+01  6.000E-02  1.274E+00
   1   10    7     6     2    1.2808E+01  2.2878E-01   1.2579E+01  0.000E+00  0.000E+00  0.000E+00  1.03899E+03  8.131E-01  1.200E+01  6.000E-02  1.271E+00
   1   11    7     6     3    1.2579E+01  2.2825E-01   1.2351E+01  0.000E+00  0.000E+00  0.000E+00  1.03444E+03  8.042E-01  1.200E+01  6.000E-02  1.268E+00
   1   12    7     6     4    1.2351E+01  2.2772E-01   1.2123E+01  0.000E+00  0.000E+00  0.000E+00  1.02989E+03  7.954E-01  1.200E+01  6.000E-02  1.265E+00
   1   13    7     6     5    1.2123E+01  1.7088E-03   1.2122E+01  0.000E+00  0.000E+00  0.000E+00  1.02670E+03  7.909E-01  1.200E+01  2.400E-02  2.373E-02
   1   14    9     7     1    1.5000E+02  1.3861E+00   1.4861E+02  0.000E+00  0.000E+00  0.000E+00  1.03987E+03  2.288E+00  5.529E+01  5.593E-01  8.261E-01
   1   13    8     7     2    1.4861E+02  1.9822E+00   1.4663E+02  0.000E+00  0.000E+00  0.000E+00  1.03478E+03  2.279E+00  5.525E+01  6.147E-01  1.075E+00
   1   13    7     7     3    1.4663E+02  1.7082E+00   1.4492E+02  0.000E+00  0.000E+00  0.000E+00  1.02969E+03  2.269E+00  5.521E+01  5.584E-01  1.020E+00
   1   13    6     8     1    1.5705E+02  1.0826E+00   1.5596E+02  0.000E+00  0.000E+00  0.000E+00  1.02474E+03  2.862E+00  4.150E+01  4.229E-01  8.533E-01
   1   13    5     8     2    1.5596E+02  3.3440E-01   1.5563E+02  0.000E+00  0.000E+00  0.000E+00  1.01848E+03  2.857E+00  4.143E+01  4.222E-01  2.640E-01
   1   13    4     8     3    1.5563E+02 -1.8802E+00   1.5751E+02  0.000E+00  0.000E+00  0.000E+00  1.01224E+03  2.862E+00  4.151E+01  4.230E+00 -1.482E-01
   1   13    3     8     4    1.5751E+02 -3.3682E+00   1.6088E+02  0.000E+00  0.000E+00  0.000E+00  1.00601E+03  2.880E+00  4.177E+01  4.256E+00 -2.638E-01
   1   13    2     8     5    1.6088E+02 -2.5105E+00   1.6339E+02  0.000E+00  0.000E+00  0.000E+00  9.99775E+02  2.900E+00  4.205E+01  4.285E+00 -1.953E-01
   1   13    1     8     6    1.6339E+02 -1.9660E+00   1.6535E+02  0.000E+00  0.000E+00  0.000E+00  9.94790E+02  2.915E+00  4.227E+01  2.584E+00 -2.536E-01
   1    8    6     9     1    0.0000E+00  0.0000E+00   0.0000E+00  0.000E+00  0.000E+00  0.000E+00  1.07875E+03  0.000E+00  4.000E+00  0.000E+00  1.000E+00
   1    8    5     9     2    0.0000E+00  0.0000E+00   0.0000E+00  0.000E+00  0.000E+00  0.000E+00  1.07825E+03  0.000E+00  4.000E+00  0.000E+00  1.000E+00





UNSATURATED ZONE PACKAGE VOLUMETRIC BUDGET FOR  TIME STEP    30 STRESS PERIOD   38
  ------------------------------------------------------------------------------



     CUMULATIVE VOLUMES      L**3       RATES FOR THIS TIME STEP      L**3/T
     ------------------                 ------------------------

           IN:                                      IN:
           ---                                      ---
        INFILTRATION =  1290353577.3235          INFILTRATION =           0.8475

          OUT:                                     OUT:
          ----                                     ----
              UZF ET =  1284686482.9462                UZF ET =           0.7500
        UZF RECHARGE =       73224.0000          UZF RECHARGE =       0.0000E+00

            IN - OUT =     5593870.3773              IN - OUT =       9.7500E-02

          STORAGE:                                 STORAGE:
          --------                                 --------
      STORAGE CHANGE =     5593873.5582        STORAGE CHANGE =       9.7500E-02

 PERCENT DISCREPANCY IS DIFFERENCE BETWEEN IN-OUT MINUS CHANGE IN STORAGE
 DIVIDED BY THE AVERAGE OF IN AND OUT TIMES 100

 PERCENT DISCREPANCY =           0.00     PERCENT DISCREPANCY =           0.00






1
  VOLUMETRIC BUDGET FOR AGRICULTURAL FIELDS AT  END OF TIME STEP   30, STRESS PERIOD  38
  ------------------------------------------------------------------------------

     CUMULATIVE VOLUMES      L**3       RATES FOR THIS TIME STEP      L**3/T
     ------------------                 ------------------------

           IN:                                      IN:
           ---                                      ---
           AG WELLS      =   605950784.0000             AG WELLS      =           0.0000
      DIVERSION SEGMENTS =   601916864.0000        DIVERSION SEGMENTS =           0.0000
           GW IRRIGATION =           0.0000             GW IRRIGATION =           0.0000
           SW IRRIGATION =           0.0000             SW IRRIGATION =           0.0000
        SYSTEM LOSSES GW =           0.0000          SYSTEM LOSSES GW =           0.0000
        SYSTEM LOSSES SW =           0.0000          SYSTEM LOSSES SW =           0.0000

                TOTAL IN =  1207867648.0000                  TOTAL IN =           0.0000

          OUT:                                     OUT:
          ----                                     ----
           AG WELLS      =           0.0000             AG WELLS      =           0.0000
      DIVERSION SEGMENTS =           0.0000        DIVERSION SEGMENTS =           0.0000
           GW IRRIGATION =   605950784.0000             GW IRRIGATION =           0.0000
           SW IRRIGATION =   601926656.0000             SW IRRIGATION =           0.0000
        SYSTEM LOSSES GW =           0.0000          SYSTEM LOSSES GW =           0.0000
        SYSTEM LOSSES SW =           0.0000          SYSTEM LOSSES SW =           0.0000

               TOTAL OUT =  1207877376.0000                 TOTAL OUT =           0.0000

                IN - OUT =       -9728.0000                  IN - OUT =           0.0000

     PERCENT DISCREPANCY =          -0.00         PERCENT DISCREPANCY =           0.00



1
  VOLUMETRIC BUDGET FOR ENTIRE MODEL AT END OF TIME STEP   30, STRESS PERIOD  38
  ------------------------------------------------------------------------------

     CUMULATIVE VOLUMES      L**3       RATES FOR THIS TIME STEP      L**3/T
     ------------------                 ------------------------

           IN:                                      IN:
           ---                                      ---
             STORAGE     =   895746816.0000               STORAGE     =           2.7590
       CONSTANT HEAD     =           0.0000         CONSTANT HEAD     =           0.0000
     HEAD DEP BOUNDS     =    28082010.0000       HEAD DEP BOUNDS     =           0.2892
      STREAM LEAKAGE     =  1148808704.0000        STREAM LEAKAGE     =          11.4967
        UZF RECHARGE     =       73223.9531          UZF RECHARGE     =           0.0000
               GW ET     =           0.0000                 GW ET     =           0.0000
     SURFACE LEAKAGE     =           0.0000       SURFACE LEAKAGE     =           0.0000
           AG WELLS      =           0.0000             AG WELLS      =           0.0000

                TOTAL IN =  2072710656.0000                  TOTAL IN =          14.5448

          OUT:                                     OUT:
          ----                                     ----
             STORAGE     =   455303520.0000               STORAGE     =           4.5335
       CONSTANT HEAD     =           0.0000         CONSTANT HEAD     =           0.0000
     HEAD DEP BOUNDS     =    28029968.0000       HEAD DEP BOUNDS     =           0.2869
      STREAM LEAKAGE     =   983438976.0000        STREAM LEAKAGE     =           9.7249
        UZF RECHARGE     =           0.0000          UZF RECHARGE     =           0.0000
               GW ET     =           0.0000                 GW ET     =           0.0000
     SURFACE LEAKAGE     =           0.0000       SURFACE LEAKAGE     =           0.0000
           AG WELLS      =   605950784.0000             AG WELLS      =           0.0000

               TOTAL OUT =  2072723200.0000                 TOTAL OUT =          14.5454

                IN - OUT =      -12544.0000                  IN - OUT =      -5.0449E-04

     PERCENT DISCREPANCY =          -0.00         PERCENT DISCREPANCY =          -0.00






         TIME SUMMARY AT END OF TIME STEP   30 IN STRESS PERIOD   38
                    SECONDS     MINUTES      HOURS       DAYS        YEARS
                    -----------------------------------------------------------
   TIME STEP LENGTH  87667.      1461.1      24.352      1.0147     2.77799E-03
 STRESS PERIOD TIME 2.63000E+06  43833.      730.56      30.440     8.33397E-02
         TOTAL TIME 9.73959E+07 1.62326E+06  27054.      1127.3      3.0863    
1
1
                            STRESS PERIOD NO.   39, LENGTH =   2630000.    
                            -----------------------------------------------

                              NUMBER OF TIME STEPS =    30

                               MULTIPLIER FOR DELT =     1.000

                            INITIAL TIME STEP SIZE =   87666.66    

 REUSING NON-PARAMETER GHB CELLS FROM LAST STRESS PERIOD

      2 GHB CELLS

 REUSING STREAM SEGMENT DATA FROM LAST STRESS PERIOD



            AREAL INFILTRATION RATE
 READING ON UNIT   19 WITH FORMAT: (FREE)              

            1           2           3           4           5           6           7           8           9          10
 ........................................................................................................................
   1   1.0000E-10  2.0000E-10   0.000       0.000       0.000       0.000       0.000       0.000       0.000       0.000    
   2   2.0000E-10  1.0000E-10  2.0000E-10   0.000       0.000      8.0000E-10  8.0000E-10  5.0000E-10   0.000       0.000    
   3    0.000      5.0000E-10  1.0000E-10  1.0000E-10  8.0000E-10  8.0000E-10  5.0000E-10  5.0000E-10   0.000       0.000    
   4   8.0000E-10  5.0000E-10  1.0000E-10  1.0000E-10  1.0000E-10  1.0000E-10  1.0000E-10  1.0000E-10  2.0000E-10   0.000    
   5   8.0000E-10  5.0000E-10  1.0000E-10  1.0000E-10  1.0000E-10  1.0000E-10  1.0000E-10  1.0000E-10  1.0000E-10  1.0000E-10
   6   8.0000E-10  5.0000E-10  5.0000E-10  2.0000E-10  2.0000E-10  1.0000E-10  1.0000E-10  1.0000E-10  1.0000E-10  5.0000E-10
   7   8.0000E-10  5.0000E-10  5.0000E-10  2.0000E-10  2.0000E-10  1.0000E-10  1.0000E-10  2.0000E-10  2.0000E-10   0.000    
   8    0.000      5.0000E-10  5.0000E-10  2.0000E-10  2.0000E-10  1.0000E-10  1.0000E-10  2.0000E-10  5.0000E-10   0.000    
   9    0.000      5.0000E-10  5.0000E-10  2.0000E-10  2.0000E-10  1.0000E-10  1.0000E-10  2.0000E-10  5.0000E-10   0.000    
  10    0.000      5.0000E-10  5.0000E-10  2.0000E-10  2.0000E-10  1.0000E-10  1.0000E-10  2.0000E-10  5.0000E-10  8.0000E-10
  11    0.000      1.0000E-10  1.0000E-10  1.0000E-10  1.0000E-10  1.0000E-10  1.0000E-10  2.0000E-10  5.0000E-10   0.000    
  12   1.0000E-10  1.0000E-10  1.0000E-10  1.0000E-10  1.0000E-10  1.0000E-10  1.0000E-10  1.0000E-10  2.0000E-10   0.000    
  13   1.0000E-10  1.0000E-10  2.0000E-10  2.0000E-10  2.0000E-10  2.0000E-10  2.0000E-10  1.0000E-10  1.0000E-10   0.000    
  14    0.000      2.0000E-10  5.0000E-10  5.0000E-10  5.0000E-10  5.0000E-10  5.0000E-10  2.0000E-10  1.0000E-10   0.000    
  15    0.000       0.000      8.0000E-10  8.0000E-10  8.0000E-10  8.0000E-10   0.000       0.000       0.000       0.000    

                  ET RATE =  5.000000E-10

 USING ET EXTINCTION DEPTH FROM PREVIOUS STRESS PERIOD. CURRENT PERIOD IS:      39

 USING EXTINCTION WATER CONTENT FROM PREVIOUS STRESS PERIOD. CURRENT PERIOD IS:      39

 USING AIR ENTRY PRESSURE FROM PREVIOUS STRESS PERIOD. CURRENT PERIOD IS:      39

 USING ROOT PRESSURE HEAD FROM PREVIOUS STRESS PERIOD. CURRENT PERIOD IS:      39

 USING ROOT ACTIVITY FROM PREVIOUS STRESS PERIOD. CURRENT PERIOD IS:      39

 PROCESSING AG STRESS PERIOD DATA

 READING AG STRESS PERIOD DATA

 READING IRRIGATION SEGMENT

 READING IRRIGATION WELL

 READING SUPPLEMENTAL WELL

 END PROCESSING AG STRESS PERIOD DATA OPTIONS
 
 SOLVING FOR HEAD 
                                                   Max.-Head-Change                         Max.-Flux-Residual
  Residual-Control   Outer-Iter.   Inner-Iter.     Column Row Layer    Maximum-Head-Change  Column Row Layer    Maximum-Flux-Residual          L2-NORM 
          0                 1           2             4    7     1       0.8839643014E-02       4    7    1         0.4633867740E+00      0.1167175173E+01
          0                 2           2             4    7     1      -0.8598577866E-03       4    7    1        -0.4633878299E-01      0.1167165636E+00
          0                 3           1             4    7     1       0.5855311428E-04       4    7    1         0.3243715212E-02      0.8170068072E-02

    ------------------------------------------------
       NWT REQUIRED            3 OUTER ITERATIONS 
       AND A TOTAL OF          5 INNER ITERATIONS.
    ------------------------------------------------

 NO OUTPUT CONTROL FOR STRESS PERIOD   39   TIME STEP    1
 
 SOLVING FOR HEAD 
                                                   Max.-Head-Change                         Max.-Flux-Residual
  Residual-Control   Outer-Iter.   Inner-Iter.     Column Row Layer    Maximum-Head-Change  Column Row Layer    Maximum-Flux-Residual          L2-NORM 
          0                 1           2             4    7     1       0.8761907714E-02       4    7    1         0.4592883692E+00      0.1159562161E+01
          0                 2           2             4    7     1      -0.8522962268E-03       4    7    1        -0.4592894016E-01      0.1159553014E+00
          0                 3           1             4    7     1       0.5803820034E-04       4    7    1         0.3215026216E-02      0.8116772809E-02

    ------------------------------------------------
       NWT REQUIRED            3 OUTER ITERATIONS 
       AND A TOTAL OF          5 INNER ITERATIONS.
    ------------------------------------------------

 NO OUTPUT CONTROL FOR STRESS PERIOD   39   TIME STEP    2
 
 SOLVING FOR HEAD 
                                                   Max.-Head-Change                         Max.-Flux-Residual
  Residual-Control   Outer-Iter.   Inner-Iter.     Column Row Layer    Maximum-Head-Change  Column Row Layer    Maximum-Flux-Residual          L2-NORM 
          0                 1           2             4    7     1       0.8685455137E-02       4    7    1         0.4552578879E+00      0.1150885564E+01
          0                 2           2             4    7     1      -0.8448594428E-03       4    7    1        -0.4552588980E-01      0.1150885991E+00
          0                 3           1             4    7     1       0.5753178344E-04       4    7    1         0.3186812707E-02      0.8056199545E-02

    ------------------------------------------------
       NWT REQUIRED            3 OUTER ITERATIONS 
       AND A TOTAL OF          5 INNER ITERATIONS.
    ------------------------------------------------

 NO OUTPUT CONTROL FOR STRESS PERIOD   39   TIME STEP    3
 
 SOLVING FOR HEAD 
                                                   Max.-Head-Change                         Max.-Flux-Residual
  Residual-Control   Outer-Iter.   Inner-Iter.     Column Row Layer    Maximum-Head-Change  Column Row Layer    Maximum-Flux-Residual          L2-NORM 
          0                 1           2             4    7     1       0.8609990649E-02       4    7    1         0.4512792478E+00      0.1143033827E+01
          0                 2           2             4    7     1      -0.8375187733E-03       4    7    1        -0.4512802361E-01      0.1143033289E+00
          0                 3           1             4    7     1       0.5703191126E-04       4    7    1         0.3158962069E-02      0.8001221650E-02

    ------------------------------------------------
       NWT REQUIRED            3 OUTER ITERATIONS 
       AND A TOTAL OF          5 INNER ITERATIONS.
    ------------------------------------------------

 NO OUTPUT CONTROL FOR STRESS PERIOD   39   TIME STEP    4
 
 SOLVING FOR HEAD 
                                                   Max.-Head-Change                         Max.-Flux-Residual
  Residual-Control   Outer-Iter.   Inner-Iter.     Column Row Layer    Maximum-Head-Change  Column Row Layer    Maximum-Flux-Residual          L2-NORM 
          0                 1           2             4    7     1       0.8535762224E-02       4    7    1         0.4473665053E+00      0.1135720658E+01
          0                 2           2             4    7     1      -0.8302983399E-03       4    7    1        -0.4473674720E-01      0.1135720443E+00
          0                 3           1             4    7     1       0.5654022668E-04       4    7    1         0.3131572736E-02      0.7950049117E-02

    ------------------------------------------------
       NWT REQUIRED            3 OUTER ITERATIONS 
       AND A TOTAL OF          5 INNER ITERATIONS.
    ------------------------------------------------

 NO OUTPUT CONTROL FOR STRESS PERIOD   39   TIME STEP    5
 
 SOLVING FOR HEAD 
                                                   Max.-Head-Change                         Max.-Flux-Residual
  Residual-Control   Outer-Iter.   Inner-Iter.     Column Row Layer    Maximum-Head-Change  Column Row Layer    Maximum-Flux-Residual          L2-NORM 
          0                 1           2             4    7     1       0.8462472547E-02       4    7    1         0.4435031840E+00      0.1128506552E+01
          0                 2           2             4    7     1      -0.8231692226E-03       4    7    1        -0.4435041302E-01      0.1128506486E+00
          0                 3           1             4    7     1       0.5605476058E-04       4    7    1         0.3104529362E-02      0.7899535361E-02

    ------------------------------------------------
       NWT REQUIRED            3 OUTER ITERATIONS 
       AND A TOTAL OF          5 INNER ITERATIONS.
    ------------------------------------------------

 NO OUTPUT CONTROL FOR STRESS PERIOD   39   TIME STEP    6
 
 SOLVING FOR HEAD 
                                                   Max.-Head-Change                         Max.-Flux-Residual
  Residual-Control   Outer-Iter.   Inner-Iter.     Column Row Layer    Maximum-Head-Change  Column Row Layer    Maximum-Flux-Residual          L2-NORM 
          0                 1           2             4    7     1       0.8390237305E-02       4    7    1         0.4396958689E+00      0.1121378561E+01
          0                 2           2             4    7     1      -0.8161426732E-03       4    7    1        -0.4396967949E-01      0.1121378726E+00
          0                 3           1             4    7     1       0.5557627893E-04       4    7    1         0.3077878016E-02      0.7849645039E-02

    ------------------------------------------------
       NWT REQUIRED            3 OUTER ITERATIONS 
       AND A TOTAL OF          5 INNER ITERATIONS.
    ------------------------------------------------

 NO OUTPUT CONTROL FOR STRESS PERIOD   39   TIME STEP    7
 
 SOLVING FOR HEAD 
                                                   Max.-Head-Change                         Max.-Flux-Residual
  Residual-Control   Outer-Iter.   Inner-Iter.     Column Row Layer    Maximum-Head-Change  Column Row Layer    Maximum-Flux-Residual          L2-NORM 
          0                 1           2             4    7     1       0.8319032382E-02       4    7    1         0.4359432246E+00      0.1114351127E+01
          0                 2           2             4    7     1      -0.8092163466E-03       4    7    1        -0.4359441308E-01      0.1114331711E+00
          0                 3           1             4    7     1       0.5510462176E-04       4    7    1         0.3051609373E-02      0.7800316736E-02

    ------------------------------------------------
       NWT REQUIRED            3 OUTER ITERATIONS 
       AND A TOTAL OF          5 INNER ITERATIONS.
    ------------------------------------------------

 NO OUTPUT CONTROL FOR STRESS PERIOD   39   TIME STEP    8
 
 SOLVING FOR HEAD 
                                                   Max.-Head-Change                         Max.-Flux-Residual
  Residual-Control   Outer-Iter.   Inner-Iter.     Column Row Layer    Maximum-Head-Change  Column Row Layer    Maximum-Flux-Residual          L2-NORM 
          0                 1           2             4    7     1       0.8248836421E-02       4    7    1         0.4322440009E+00      0.1107410265E+01
          0                 2           2             4    7     1      -0.8023881655E-03       4    7    1        -0.4322448880E-01      0.1107410720E+00
          0                 3           1             4    7     1       0.5463964848E-04       4    7    1         0.3025714684E-02      0.7751879526E-02

    ------------------------------------------------
       NWT REQUIRED            3 OUTER ITERATIONS 
       AND A TOTAL OF          5 INNER ITERATIONS.
    ------------------------------------------------

 NO OUTPUT CONTROL FOR STRESS PERIOD   39   TIME STEP    9
 
 SOLVING FOR HEAD 
                                                   Max.-Head-Change                         Max.-Flux-Residual
  Residual-Control   Outer-Iter.   Inner-Iter.     Column Row Layer    Maximum-Head-Change  Column Row Layer    Maximum-Flux-Residual          L2-NORM 
          0                 1           2             4    7     1       0.8179625816E-02       4    7    1         0.4285970903E+00      0.1100558726E+01
          0                 2           2             4    7     1      -0.7956674406E-03       4    7    1        -0.4285979589E-01      0.1100679686E+00
          0                 3           1             4    7     1       0.5418199231E-04       4    7    1         0.3000186182E-02      0.7704759717E-02

    ------------------------------------------------
       NWT REQUIRED            3 OUTER ITERATIONS 
       AND A TOTAL OF          5 INNER ITERATIONS.
    ------------------------------------------------

 NO OUTPUT CONTROL FOR STRESS PERIOD   39   TIME STEP   10
 
 SOLVING FOR HEAD 
                                                   Max.-Head-Change                         Max.-Flux-Residual
  Residual-Control   Outer-Iter.   Inner-Iter.     Column Row Layer    Maximum-Head-Change  Column Row Layer    Maximum-Flux-Residual          L2-NORM 
          0                 1           2             4    7     1       0.8111342290E-02       4    7    1         0.4250006521E+00      0.1093786221E+01
          0                 2           2             4    7     1      -0.7890136828E-03       4    7    1        -0.4250015028E-01      0.1093786631E+00
          0                 3           1             4    7     1       0.5372889636E-04       4    7    1         0.2975011008E-02      0.7656504290E-02

    ------------------------------------------------
       NWT REQUIRED            3 OUTER ITERATIONS 
       AND A TOTAL OF          5 INNER ITERATIONS.
    ------------------------------------------------

 NO OUTPUT CONTROL FOR STRESS PERIOD   39   TIME STEP   11
 
 SOLVING FOR HEAD 
                                                   Max.-Head-Change                         Max.-Flux-Residual
  Residual-Control   Outer-Iter.   Inner-Iter.     Column Row Layer    Maximum-Head-Change  Column Row Layer    Maximum-Flux-Residual          L2-NORM 
          0                 1           2             4    7     1       0.8043866833E-02       4    7    1         0.4214461806E+00      0.1087088667E+01
          0                 2           2             4    7     1      -0.7824501342E-03       4    7    1        -0.4214470137E-01      0.1087088940E+00
          0                 3           1             4    7     1       0.5328194303E-04       4    7    1         0.2950129566E-02      0.7609622813E-02

    ------------------------------------------------
       NWT REQUIRED            3 OUTER ITERATIONS 
       AND A TOTAL OF          5 INNER ITERATIONS.
    ------------------------------------------------

 NO OUTPUT CONTROL FOR STRESS PERIOD   39   TIME STEP   12
 
 SOLVING FOR HEAD 
                                                   Max.-Head-Change                         Max.-Flux-Residual
  Residual-Control   Outer-Iter.   Inner-Iter.     Column Row Layer    Maximum-Head-Change  Column Row Layer    Maximum-Flux-Residual          L2-NORM 
          0                 1           2             4    7     1       0.7977442191E-02       4    7    1         0.4179476582E+00      0.1080474526E+01
          0                 2           2             4    7     1      -0.7759888025E-03       4    7    1        -0.4179484742E-01      0.1080474723E+00
          0                 3           1             4    7     1       0.5284195050E-04       4    7    1         0.2925639799E-02      0.7563317065E-02

    ------------------------------------------------
       NWT REQUIRED            3 OUTER ITERATIONS 
       AND A TOTAL OF          5 INNER ITERATIONS.
    ------------------------------------------------

 NO OUTPUT CONTROL FOR STRESS PERIOD   39   TIME STEP   13
 
 SOLVING FOR HEAD 
                                                   Max.-Head-Change                         Max.-Flux-Residual
  Residual-Control   Outer-Iter.   Inner-Iter.     Column Row Layer    Maximum-Head-Change  Column Row Layer    Maximum-Flux-Residual          L2-NORM 
          0                 1           2             4    7     1       0.7911912118E-02       4    7    1         0.4144962847E+00      0.1073941369E+01
          0                 2           2             4    7     1      -0.7696144894E-03       4    7    1        -0.4144970842E-01      0.1073941452E+00
          0                 3           1             4    7     1       0.5240788402E-04       4    7    1         0.2901480104E-02      0.7517590365E-02

    ------------------------------------------------
       NWT REQUIRED            3 OUTER ITERATIONS 
       AND A TOTAL OF          5 INNER ITERATIONS.
    ------------------------------------------------

 NO OUTPUT CONTROL FOR STRESS PERIOD   39   TIME STEP   14
 
 SOLVING FOR HEAD 
                                                   Max.-Head-Change                         Max.-Flux-Residual
  Residual-Control   Outer-Iter.   Inner-Iter.     Column Row Layer    Maximum-Head-Change  Column Row Layer    Maximum-Flux-Residual          L2-NORM 
          0                 1           2             4    7     1       0.7847260309E-02       4    7    1         0.4110912934E+00      0.1067495483E+01
          0                 2           2             4    7     1      -0.7633256068E-03       4    7    1        -0.4110920764E-01      0.1067495345E+00
          0                 3           1             4    7     1       0.5197963451E-04       4    7    1         0.2877645042E-02      0.7472453585E-02

    ------------------------------------------------
       NWT REQUIRED            3 OUTER ITERATIONS 
       AND A TOTAL OF          5 INNER ITERATIONS.
    ------------------------------------------------

 NO OUTPUT CONTROL FOR STRESS PERIOD   39   TIME STEP   15
 
 SOLVING FOR HEAD 
                                                   Max.-Head-Change                         Max.-Flux-Residual
  Residual-Control   Outer-Iter.   Inner-Iter.     Column Row Layer    Maximum-Head-Change  Column Row Layer    Maximum-Flux-Residual          L2-NORM 
          0                 1           2             4    7     1       0.7783469255E-02       4    7    1         0.4077318388E+00      0.1061126832E+01
          0                 2           2             4    7     1      -0.7571204534E-03       4    7    1        -0.4077326062E-01      0.1061126616E+00
          0                 3           1             4    7     1       0.5155708669E-04       4    7    1         0.2854128755E-02      0.7427882963E-02

    ------------------------------------------------
       NWT REQUIRED            3 OUTER ITERATIONS 
       AND A TOTAL OF          5 INNER ITERATIONS.
    ------------------------------------------------

 NO OUTPUT CONTROL FOR STRESS PERIOD   39   TIME STEP   16
 
 SOLVING FOR HEAD 
                                                   Max.-Head-Change                         Max.-Flux-Residual
  Residual-Control   Outer-Iter.   Inner-Iter.     Column Row Layer    Maximum-Head-Change  Column Row Layer    Maximum-Flux-Residual          L2-NORM 
          0                 1           2             4    7     1       0.7720523814E-02       4    7    1         0.4044170131E+00      0.1054836382E+01
          0                 2           2             4    7     1      -0.7509975550E-03       4    7    1        -0.4044177648E-01      0.1054836109E+00
          0                 3           1             4    7     1       0.5114014009E-04       4    7    1         0.2830924856E-02      0.7383848417E-02

    ------------------------------------------------
       NWT REQUIRED            3 OUTER ITERATIONS 
       AND A TOTAL OF          5 INNER ITERATIONS.
    ------------------------------------------------

 NO OUTPUT CONTROL FOR STRESS PERIOD   39   TIME STEP   17
 
 SOLVING FOR HEAD 
                                                   Max.-Head-Change                         Max.-Flux-Residual
  Residual-Control   Outer-Iter.   Inner-Iter.     Column Row Layer    Maximum-Head-Change  Column Row Layer    Maximum-Flux-Residual          L2-NORM 
          0                 1           2             4    7     1       0.7658405947E-02       4    7    1         0.4011460312E+00      0.1048618366E+01
          0                 2           2             4    7     1      -0.7449551585E-03       4    7    1        -0.4011467679E-01      0.1048617937E+00
          0                 3           1             4    7     1       0.5072867592E-04       4    7    1         0.2808027905E-02      0.7340322780E-02

    ------------------------------------------------
       NWT REQUIRED            3 OUTER ITERATIONS 
       AND A TOTAL OF          5 INNER ITERATIONS.
    ------------------------------------------------

 NO OUTPUT CONTROL FOR STRESS PERIOD   39   TIME STEP   18
 
 SOLVING FOR HEAD 
                                                   Max.-Head-Change                         Max.-Flux-Residual
  Residual-Control   Outer-Iter.   Inner-Iter.     Column Row Layer    Maximum-Head-Change  Column Row Layer    Maximum-Flux-Residual          L2-NORM 
          0                 1           2             4    7     1       0.7597099288E-02       4    7    1         0.3979179577E+00      0.1042475308E+01
          0                 2           2             4    7     1      -0.7389916704E-03       4    7    1        -0.3979186798E-01      0.1042474722E+00
          0                 3           1             4    7     1       0.5032258470E-04       4    7    1         0.2785431280E-02      0.7297313821E-02

    ------------------------------------------------
       NWT REQUIRED            3 OUTER ITERATIONS 
       AND A TOTAL OF          5 INNER ITERATIONS.
    ------------------------------------------------

 NO OUTPUT CONTROL FOR STRESS PERIOD   39   TIME STEP   19
 
 SOLVING FOR HEAD 
                                                   Max.-Head-Change                         Max.-Flux-Residual
  Residual-Control   Outer-Iter.   Inner-Iter.     Column Row Layer    Maximum-Head-Change  Column Row Layer    Maximum-Flux-Residual          L2-NORM 
          0                 1           2             4    7     1       0.7536593209E-02       4    7    1         0.3947319442E+00      0.1036413075E+01
          0                 2           2             4    7     1      -0.7331060572E-03       4    7    1        -0.3947326518E-01      0.1036412343E+00
          0                 3           1             4    7     1       0.4992179615E-04       4    7    1         0.2763129083E-02      0.7254873991E-02

    ------------------------------------------------
       NWT REQUIRED            3 OUTER ITERATIONS 
       AND A TOTAL OF          5 INNER ITERATIONS.
    ------------------------------------------------

 NO OUTPUT CONTROL FOR STRESS PERIOD   39   TIME STEP   20
 
 SOLVING FOR HEAD 
                                                   Max.-Head-Change                         Max.-Flux-Residual
  Residual-Control   Outer-Iter.   Inner-Iter.     Column Row Layer    Maximum-Head-Change  Column Row Layer    Maximum-Flux-Residual          L2-NORM 
          0                 1           2             4    7     1       0.7477002489E-02       4    7    1         0.3915947751E+00      0.1030416881E+01
          0                 2           2             4    7     1      -0.7273094847E-03       4    7    1        -0.3915954690E-01      0.1030416008E+00
          0                 3           1             4    7     1       0.4952707128E-04       4    7    1         0.2741168804E-02      0.7212903274E-02

    ------------------------------------------------
       NWT REQUIRED            3 OUTER ITERATIONS 
       AND A TOTAL OF          5 INNER ITERATIONS.
    ------------------------------------------------

 NO OUTPUT CONTROL FOR STRESS PERIOD   39   TIME STEP   21
 
 SOLVING FOR HEAD 
                                                   Max.-Head-Change                         Max.-Flux-Residual
  Residual-Control   Outer-Iter.   Inner-Iter.     Column Row Layer    Maximum-Head-Change  Column Row Layer    Maximum-Flux-Residual          L2-NORM 
          0                 1           2             4    7     1       0.7418038454E-02       4    7    1         0.3884903952E+00      0.1024492209E+01
          0                 2           2             4    7     1      -0.7215738719E-03       4    7    1        -0.3884910752E-01      0.1024491297E+00
          0                 3           1             4    7     1       0.4913649778E-04       4    7    1         0.2719438074E-02      0.7171434133E-02

    ------------------------------------------------
       NWT REQUIRED            3 OUTER ITERATIONS 
       AND A TOTAL OF          5 INNER ITERATIONS.
    ------------------------------------------------

 NO OUTPUT CONTROL FOR STRESS PERIOD   39   TIME STEP   22
 
 SOLVING FOR HEAD 
                                                   Max.-Head-Change                         Max.-Flux-Residual
  Residual-Control   Outer-Iter.   Inner-Iter.     Column Row Layer    Maximum-Head-Change  Column Row Layer    Maximum-Flux-Residual          L2-NORM 
          0                 1           2             4    7     1       0.7359827891E-02       4    7    1         0.3854258433E+00      0.1018636947E+01
          0                 2           2             4    7     1      -0.7159115513E-03       4    7    1        -0.3854265101E-01      0.1018635953E+00
          0                 3           1             4    7     1       0.4875091466E-04       4    7    1         0.2697986110E-02      0.7130447530E-02

    ------------------------------------------------
       NWT REQUIRED            3 OUTER ITERATIONS 
       AND A TOTAL OF          5 INNER ITERATIONS.
    ------------------------------------------------

 NO OUTPUT CONTROL FOR STRESS PERIOD   39   TIME STEP   23
 
 SOLVING FOR HEAD 
                                                   Max.-Head-Change                         Max.-Flux-Residual
  Residual-Control   Outer-Iter.   Inner-Iter.     Column Row Layer    Maximum-Head-Change  Column Row Layer    Maximum-Flux-Residual          L2-NORM 
          0                 1           2             4    7     1       0.7302491430E-02       4    7    1         0.3824076936E+00      0.1012854574E+01
          0                 2           2             4    7     1      -0.7103342578E-03       4    7    1        -0.3824083473E-01      0.1012853443E+00
          0                 3           1             4    7     1       0.4837112186E-04       4    7    1         0.2676858970E-02      0.7090115212E-02

    ------------------------------------------------
       NWT REQUIRED            3 OUTER ITERATIONS 
       AND A TOTAL OF          5 INNER ITERATIONS.
    ------------------------------------------------

 NO OUTPUT CONTROL FOR STRESS PERIOD   39   TIME STEP   24
 
 SOLVING FOR HEAD 
                                                   Max.-Head-Change                         Max.-Flux-Residual
  Residual-Control   Outer-Iter.   Inner-Iter.     Column Row Layer    Maximum-Head-Change  Column Row Layer    Maximum-Flux-Residual          L2-NORM 
          0                 1           2             4    7     1       0.7245874266E-02       4    7    1         0.3794275293E+00      0.1007134549E+01
          0                 2           2             4    7     1      -0.7048269330E-03       4    7    1        -0.3794281706E-01      0.1007133287E+00
          0                 3           1             4    7     1       0.4799609378E-04       4    7    1         0.2655997732E-02      0.7049924481E-02

    ------------------------------------------------
       NWT REQUIRED            3 OUTER ITERATIONS 
       AND A TOTAL OF          5 INNER ITERATIONS.
    ------------------------------------------------

 NO OUTPUT CONTROL FOR STRESS PERIOD   39   TIME STEP   25
 
 SOLVING FOR HEAD 
                                                   Max.-Head-Change                         Max.-Flux-Residual
  Residual-Control   Outer-Iter.   Inner-Iter.     Column Row Layer    Maximum-Head-Change  Column Row Layer    Maximum-Flux-Residual          L2-NORM 
          0                 1           2             4    7     1       0.7189962425E-02       4    7    1         0.3764846593E+00      0.1001485385E+01
          0                 2           2             4    7     1      -0.6993882168E-03       4    7    1        -0.3764852880E-01      0.1001484112E+00
          0                 3           1             4    7     1       0.4762573715E-04       4    7    1         0.2635397551E-02      0.7010383369E-02

    ------------------------------------------------
       NWT REQUIRED            3 OUTER ITERATIONS 
       AND A TOTAL OF          5 INNER ITERATIONS.
    ------------------------------------------------

 NO OUTPUT CONTROL FOR STRESS PERIOD   39   TIME STEP   26
 
 SOLVING FOR HEAD 
                                                   Max.-Head-Change                         Max.-Flux-Residual
  Residual-Control   Outer-Iter.   Inner-Iter.     Column Row Layer    Maximum-Head-Change  Column Row Layer    Maximum-Flux-Residual          L2-NORM 
          0                 1           2             4    7     1       0.7134746670E-02       4    7    1         0.3735783594E+00      0.9959058065E+00
          0                 2           2             4    7     1      -0.6940172119E-03       4    7    1        -0.3735789761E-01      0.9959043463E-01
          0                 3           1             4    7     1       0.4725999209E-04       4    7    1         0.2615053381E-02      0.6971306667E-02

    ------------------------------------------------
       NWT REQUIRED            3 OUTER ITERATIONS 
       AND A TOTAL OF          5 INNER ITERATIONS.
    ------------------------------------------------

 NO OUTPUT CONTROL FOR STRESS PERIOD   39   TIME STEP   27
 
 SOLVING FOR HEAD 
                                                   Max.-Head-Change                         Max.-Flux-Residual
  Residual-Control   Outer-Iter.   Inner-Iter.     Column Row Layer    Maximum-Head-Change  Column Row Layer    Maximum-Flux-Residual          L2-NORM 
          0                 1           2             4    7     1       0.7080211991E-02       4    7    1         0.3707081505E+00      0.9903830929E+00
          0                 2           2             4    7     1      -0.6887124571E-03       4    7    1        -0.3707087555E-01      0.9903815783E-01
          0                 3           1             4    7     1       0.4689875792E-04       4    7    1         0.2594961836E-02      0.6932652222E-02

    ------------------------------------------------
       NWT REQUIRED            3 OUTER ITERATIONS 
       AND A TOTAL OF          5 INNER ITERATIONS.
    ------------------------------------------------

 NO OUTPUT CONTROL FOR STRESS PERIOD   39   TIME STEP   28
 
 SOLVING FOR HEAD 
                                                   Max.-Head-Change                         Max.-Flux-Residual
  Residual-Control   Outer-Iter.   Inner-Iter.     Column Row Layer    Maximum-Head-Change  Column Row Layer    Maximum-Flux-Residual          L2-NORM 
          0                 1           2             4    7     1       0.7026478057E-02       4    7    1         0.3678805907E+00      0.9849251293E+00
          0                 2           2             4    7     1      -0.6834855936E-03       4    7    1        -0.3678811842E-01      0.9849235640E-01
          0                 3           1             4    7     1       0.4654282794E-04       4    7    1         0.2575168834E-02      0.6894451048E-02

    ------------------------------------------------
       NWT REQUIRED            3 OUTER ITERATIONS 
       AND A TOTAL OF          5 INNER ITERATIONS.
    ------------------------------------------------

 NO OUTPUT CONTROL FOR STRESS PERIOD   39   TIME STEP   29
 
 SOLVING FOR HEAD 
                                                   Max.-Head-Change                         Max.-Flux-Residual
  Residual-Control   Outer-Iter.   Inner-Iter.     Column Row Layer    Maximum-Head-Change  Column Row Layer    Maximum-Flux-Residual          L2-NORM 
          0                 1           2             4    7     1       0.6973356766E-02       4    7    1         0.3650798757E+00      0.1036151266E+01
          0                 2           2             4    7     1      -0.6783183269E-03       4    7    1        -0.3650804575E-01      0.1033614382E+00
          0                 3           1             4    7     1       0.4619095644E-04       4    7    1         0.2555563767E-02      0.7211101308E-02

    ------------------------------------------------
       NWT REQUIRED            3 OUTER ITERATIONS 
       AND A TOTAL OF          5 INNER ITERATIONS.
    ------------------------------------------------

 NO OUTPUT CONTROL FOR STRESS PERIOD   39   TIME STEP   30



 STREAM LISTING     PERIOD     39   STEP       30

 LAYER ROW COL. STREAM  RCH.  FLOW INTO     FLOW TO   FLOW OUT OF   OVRLND.     DIRECT     STREAM       STREAM     STREAM     STREAM   STREAMBED  STREAMBED
                SEG.NO.  NO.  STRM. RCH.    AQUIFER    STRM. RCH.    RUNOFF     PRECIP       ET          HEAD       DEPTH      WIDTH   CONDCTNC.   GRADIENT

   1    1    1     1     1    1.6375E+01  1.9673E-01   1.6178E+01  0.000E+00  0.000E+00  0.000E+00  1.09408E+03  1.036E+00  1.083E+01  4.874E-02  1.345E+00
   1    2    2     1     2    1.6178E+01  3.0333E-01   1.5875E+01  0.000E+00  0.000E+00  0.000E+00  1.08909E+03  1.032E+00  1.075E+01  7.524E-02  1.344E+00
   1    3    3     1     3    1.5875E+01  2.5739E-01   1.5618E+01  0.000E+00  0.000E+00  0.000E+00  1.08345E+03  1.026E+00  1.065E+01  6.392E-02  1.342E+00
   1    3    4     1     4    1.5618E+01  2.3595E-01   1.5382E+01  0.000E+00  0.000E+00  0.000E+00  1.07843E+03  1.022E+00  1.057E+01  5.867E-02  1.341E+00
   1    4    5     2     1    1.3382E+01  2.9830E-01   1.3084E+01  0.000E+00  0.000E+00  0.000E+00  1.07276E+03  8.244E-01  1.200E+01  7.800E-02  1.275E+00
   1    5    6     2     2    1.3084E+01  2.2887E-01   1.2855E+01  0.000E+00  0.000E+00  0.000E+00  1.06732E+03  8.145E-01  1.200E+01  6.000E-02  1.271E+00
   1    6    6     2     3    1.2855E+01  2.2835E-01   1.2626E+01  0.000E+00  0.000E+00  0.000E+00  1.06260E+03  8.059E-01  1.200E+01  6.000E-02  1.269E+00
   1    7    6     2     4    1.2626E+01  2.2783E-01   1.2398E+01  0.000E+00  0.000E+00  0.000E+00  1.05787E+03  7.972E-01  1.200E+01  6.000E-02  1.266E+00
   1    8    6     2     5    1.2398E+01  2.2731E-01   1.2171E+01  0.000E+00  0.000E+00  0.000E+00  1.05315E+03  7.884E-01  1.200E+01  6.000E-02  1.263E+00
   1    3    5     3     1    2.0000E+00  2.8252E-01   1.7175E+00  0.000E+00  0.000E+00  0.000E+00  1.07555E+03  1.909E+00  9.636E+00  7.227E-02  1.955E+00
   1    3    6     3     2    1.7175E+00  2.4905E-01   1.4684E+00  0.000E+00  0.000E+00  0.000E+00  1.07264E+03  1.727E+00  8.909E+00  6.682E-02  1.864E+00
   1    3    7     3     3    1.4684E+00  1.9718E-01   1.2712E+00  0.000E+00  0.000E+00  0.000E+00  1.06987E+03  1.555E+00  8.218E+00  5.547E-02  1.777E+00
   1    4    8     3     4    1.2712E+00  2.2567E-01   1.0456E+00  0.000E+00  0.000E+00  0.000E+00  1.06682E+03  1.364E+00  7.455E+00  6.709E-02  1.682E+00
   1    5    8     3     5    1.0456E+00  1.5790E-01   8.8768E-01  0.000E+00  0.000E+00  0.000E+00  1.06362E+03  1.164E+00  6.655E+00  4.991E-02  1.582E+00
   1    6    8     3     6    8.8768E-01  5.5980E-02   8.3170E-01  0.000E+00  0.000E+00  0.000E+00  1.06158E+03  1.036E+00  6.145E+00  1.844E-02  1.518E+00
   1    5   10     4     1    1.0000E+01  9.0919E-02   9.9091E+00  0.000E+00  0.000E+00  0.000E+00  1.07836E+03  6.368E-01  1.000E+01  2.500E-02  1.212E+00
   1    5    9     4     2    9.9091E+00  1.8158E-01   9.7275E+00  0.000E+00  0.000E+00  0.000E+00  1.07154E+03  6.315E-01  1.000E+01  5.000E-02  1.211E+00
   1    6    8     4     3    9.7275E+00  1.2689E-01   9.6006E+00  0.000E+00  0.000E+00  0.000E+00  1.06381E+03  6.256E-01  1.000E+01  3.500E-02  1.209E+00
   1    6    8     5     1    1.0432E+01  2.2686E-01   1.0205E+01  0.000E+00  0.000E+00  0.000E+00  1.05868E+03  6.790E-01  1.542E+01  6.166E-02  1.226E+00
   1    7    7     5     2    1.0205E+01  2.7894E-01   9.9265E+00  0.000E+00  0.000E+00  0.000E+00  1.05417E+03  6.732E-01  1.519E+01  7.594E-02  1.224E+00
   1    8    7     5     3    9.9265E+00  1.9221E-01   9.7343E+00  0.000E+00  0.000E+00  0.000E+00  1.04992E+03  6.676E-01  1.497E+01  5.241E-02  1.223E+00
   1    8    6     5     4    9.7343E+00  1.3577E-01   9.5985E+00  0.000E+00  0.000E+00  0.000E+00  1.04691E+03  6.637E-01  1.482E+01  3.706E-02  1.221E+00
   1    9    6     6     1    2.1770E+01  2.4720E-01   2.1522E+01  0.000E+00  0.000E+00  0.000E+00  1.04385E+03  1.120E+00  1.200E+01  6.000E-02  1.373E+00
   1   10    7     6     2    2.1522E+01  2.4674E-01   2.1276E+01  0.000E+00  0.000E+00  0.000E+00  1.03929E+03  1.112E+00  1.200E+01  6.000E-02  1.371E+00
   1   11    7     6     3    2.1276E+01  2.4627E-01   2.1029E+01  0.000E+00  0.000E+00  0.000E+00  1.03474E+03  1.105E+00  1.200E+01  6.000E-02  1.368E+00
   1   12    7     6     4    2.1029E+01  2.4581E-01   2.0784E+01  0.000E+00  0.000E+00  0.000E+00  1.03019E+03  1.097E+00  1.200E+01  6.000E-02  1.366E+00
   1   13    7     6     5    2.0784E+01  9.1946E-03   2.0774E+01  0.000E+00  0.000E+00  0.000E+00  1.02700E+03  1.093E+00  1.200E+01  2.400E-02  1.277E-01
   1   14    9     7     1    1.5000E+02  1.3870E+00   1.4861E+02  0.000E+00  0.000E+00  0.000E+00  1.03987E+03  2.288E+00  5.529E+01  5.593E-01  8.267E-01
   1   13    8     7     2    1.4861E+02  1.9852E+00   1.4663E+02  0.000E+00  0.000E+00  0.000E+00  1.03478E+03  2.279E+00  5.525E+01  6.147E-01  1.076E+00
   1   13    7     7     3    1.4663E+02  1.7138E+00   1.4491E+02  0.000E+00  0.000E+00  0.000E+00  1.02969E+03  2.269E+00  5.521E+01  5.584E-01  1.023E+00
   1   13    6     8     1    1.6569E+02  1.1345E+00   1.6455E+02  0.000E+00  0.000E+00  0.000E+00  1.02480E+03  2.920E+00  4.234E+01  4.315E-01  8.764E-01
   1   13    5     8     2    1.6455E+02  3.7036E-01   1.6418E+02  0.000E+00  0.000E+00  0.000E+00  1.01854E+03  2.915E+00  4.227E+01  4.307E-01  2.866E-01
   1   13    4     8     3    1.6418E+02 -1.6801E+00   1.6586E+02  0.000E+00  0.000E+00  0.000E+00  1.01229E+03  2.919E+00  4.233E+01  4.314E+00 -1.298E-01
   1   13    3     8     4    1.6586E+02 -3.2043E+00   1.6907E+02  0.000E+00  0.000E+00  0.000E+00  1.00606E+03  2.936E+00  4.257E+01  4.338E+00 -2.462E-01
   1   13    2     8     5    1.6907E+02 -2.3413E+00   1.7141E+02  0.000E+00  0.000E+00  0.000E+00  9.99829E+02  2.954E+00  4.283E+01  4.364E+00 -1.788E-01
   1   13    1     8     6    1.7141E+02 -1.8687E+00   1.7328E+02  0.000E+00  0.000E+00  0.000E+00  9.94842E+02  2.967E+00  4.303E+01  2.631E+00 -2.368E-01
   1    8    6     9     1    0.0000E+00  0.0000E+00   0.0000E+00  0.000E+00  0.000E+00  0.000E+00  1.07875E+03  0.000E+00  4.000E+00  0.000E+00  1.000E+00
   1    8    5     9     2    0.0000E+00  0.0000E+00   0.0000E+00  0.000E+00  0.000E+00  0.000E+00  1.07825E+03  0.000E+00  4.000E+00  0.000E+00  1.000E+00





UNSATURATED ZONE PACKAGE VOLUMETRIC BUDGET FOR  TIME STEP    30 STRESS PERIOD   39
  ------------------------------------------------------------------------------



     CUMULATIVE VOLUMES      L**3       RATES FOR THIS TIME STEP      L**3/T
     ------------------                 ------------------------

           IN:                                      IN:
           ---                                      ---
        INFILTRATION =  1292582502.1963          INFILTRATION =           0.8475

          OUT:                                     OUT:
          ----                                     ----
              UZF ET =  1286658982.8077                UZF ET =           0.7500
        UZF RECHARGE =       73224.0000          UZF RECHARGE =       0.0000E+00

            IN - OUT =     5850295.3886              IN - OUT =       9.7500E-02

          STORAGE:                                 STORAGE:
          --------                                 --------
      STORAGE CHANGE =     5850298.5901        STORAGE CHANGE =       9.7500E-02

 PERCENT DISCREPANCY IS DIFFERENCE BETWEEN IN-OUT MINUS CHANGE IN STORAGE
 DIVIDED BY THE AVERAGE OF IN AND OUT TIMES 100

 PERCENT DISCREPANCY =           0.00     PERCENT DISCREPANCY =           0.00






1
  VOLUMETRIC BUDGET FOR AGRICULTURAL FIELDS AT  END OF TIME STEP   30, STRESS PERIOD  39
  ------------------------------------------------------------------------------

     CUMULATIVE VOLUMES      L**3       RATES FOR THIS TIME STEP      L**3/T
     ------------------                 ------------------------

           IN:                                      IN:
           ---                                      ---
           AG WELLS      =   605950784.0000             AG WELLS      =           0.0000
      DIVERSION SEGMENTS =   601916864.0000        DIVERSION SEGMENTS =           0.0000
           GW IRRIGATION =           0.0000             GW IRRIGATION =           0.0000
           SW IRRIGATION =           0.0000             SW IRRIGATION =           0.0000
        SYSTEM LOSSES GW =           0.0000          SYSTEM LOSSES GW =           0.0000
        SYSTEM LOSSES SW =           0.0000          SYSTEM LOSSES SW =           0.0000

                TOTAL IN =  1207867648.0000                  TOTAL IN =           0.0000

          OUT:                                     OUT:
          ----                                     ----
           AG WELLS      =           0.0000             AG WELLS      =           0.0000
      DIVERSION SEGMENTS =           0.0000        DIVERSION SEGMENTS =           0.0000
           GW IRRIGATION =   605950784.0000             GW IRRIGATION =           0.0000
           SW IRRIGATION =   601926656.0000             SW IRRIGATION =           0.0000
        SYSTEM LOSSES GW =           0.0000          SYSTEM LOSSES GW =           0.0000
        SYSTEM LOSSES SW =           0.0000          SYSTEM LOSSES SW =           0.0000

               TOTAL OUT =  1207877376.0000                 TOTAL OUT =           0.0000

                IN - OUT =       -9728.0000                  IN - OUT =           0.0000

     PERCENT DISCREPANCY =          -0.00         PERCENT DISCREPANCY =           0.00



1
  VOLUMETRIC BUDGET FOR ENTIRE MODEL AT END OF TIME STEP   30, STRESS PERIOD  39
  ------------------------------------------------------------------------------

     CUMULATIVE VOLUMES      L**3       RATES FOR THIS TIME STEP      L**3/T
     ------------------                 ------------------------

           IN:                                      IN:
           ---                                      ---
             STORAGE     =   902086976.0000               STORAGE     =           1.8404
       CONSTANT HEAD     =           0.0000         CONSTANT HEAD     =           0.0000
     HEAD DEP BOUNDS     =    28842642.0000       HEAD DEP BOUNDS     =           0.2892
      STREAM LEAKAGE     =  1179281152.0000        STREAM LEAKAGE     =          12.1916
        UZF RECHARGE     =       73223.9531          UZF RECHARGE     =           0.0000
               GW ET     =           0.0000                 GW ET     =           0.0000
     SURFACE LEAKAGE     =           0.0000       SURFACE LEAKAGE     =           0.0000
           AG WELLS      =           0.0000             AG WELLS      =           0.0000

                TOTAL IN =  2110284032.0000                  TOTAL IN =          14.3212

          OUT:                                     OUT:
          ----                                     ----
             STORAGE     =   466717760.0000               STORAGE     =           4.9408
       CONSTANT HEAD     =           0.0000         CONSTANT HEAD     =           0.0000
     HEAD DEP BOUNDS     =    28784612.0000       HEAD DEP BOUNDS     =           0.2870
      STREAM LEAKAGE     =  1008844544.0000        STREAM LEAKAGE     =           9.0943
        UZF RECHARGE     =           0.0000          UZF RECHARGE     =           0.0000
               GW ET     =           0.0000                 GW ET     =           0.0000
     SURFACE LEAKAGE     =           0.0000       SURFACE LEAKAGE     =           0.0000
           AG WELLS      =   605950784.0000             AG WELLS      =           0.0000

               TOTAL OUT =  2110297600.0000                 TOTAL OUT =          14.3221

                IN - OUT =      -13568.0000                  IN - OUT =      -8.8120E-04

     PERCENT DISCREPANCY =          -0.00         PERCENT DISCREPANCY =          -0.01






         TIME SUMMARY AT END OF TIME STEP   30 IN STRESS PERIOD   39
                    SECONDS     MINUTES      HOURS       DAYS        YEARS
                    -----------------------------------------------------------
   TIME STEP LENGTH  87667.      1461.1      24.352      1.0147     2.77799E-03
 STRESS PERIOD TIME 2.63000E+06  43833.      730.56      30.440     8.33397E-02
         TOTAL TIME 1.00026E+08 1.66710E+06  27785.      1157.7      3.1696    
1
1
                            STRESS PERIOD NO.   40, LENGTH =   2630000.    
                            -----------------------------------------------

                              NUMBER OF TIME STEPS =    30

                               MULTIPLIER FOR DELT =     1.000

                            INITIAL TIME STEP SIZE =   87666.66    

 REUSING NON-PARAMETER GHB CELLS FROM LAST STRESS PERIOD

      2 GHB CELLS

 REUSING STREAM SEGMENT DATA FROM LAST STRESS PERIOD



            AREAL INFILTRATION RATE
 READING ON UNIT   19 WITH FORMAT: (FREE)              

            1           2           3           4           5           6           7           8           9          10
 ........................................................................................................................
   1   1.0000E-10  2.0000E-10   0.000       0.000       0.000       0.000       0.000       0.000       0.000       0.000    
   2   2.0000E-10  1.0000E-10  2.0000E-10   0.000       0.000      8.0000E-10  8.0000E-10  5.0000E-10   0.000       0.000    
   3    0.000      5.0000E-10  1.0000E-10  1.0000E-10  8.0000E-10  8.0000E-10  5.0000E-10  5.0000E-10   0.000       0.000    
   4   8.0000E-10  5.0000E-10  1.0000E-10  1.0000E-10  1.0000E-10  1.0000E-10  1.0000E-10  1.0000E-10  2.0000E-10   0.000    
   5   8.0000E-10  5.0000E-10  1.0000E-10  1.0000E-10  1.0000E-10  1.0000E-10  1.0000E-10  1.0000E-10  1.0000E-10  1.0000E-10
   6   8.0000E-10  5.0000E-10  5.0000E-10  2.0000E-10  2.0000E-10  1.0000E-10  1.0000E-10  1.0000E-10  1.0000E-10  5.0000E-10
   7   8.0000E-10  5.0000E-10  5.0000E-10  2.0000E-10  2.0000E-10  1.0000E-10  1.0000E-10  2.0000E-10  2.0000E-10   0.000    
   8    0.000      5.0000E-10  5.0000E-10  2.0000E-10  2.0000E-10  1.0000E-10  1.0000E-10  2.0000E-10  5.0000E-10   0.000    
   9    0.000      5.0000E-10  5.0000E-10  2.0000E-10  2.0000E-10  1.0000E-10  1.0000E-10  2.0000E-10  5.0000E-10   0.000    
  10    0.000      5.0000E-10  5.0000E-10  2.0000E-10  2.0000E-10  1.0000E-10  1.0000E-10  2.0000E-10  5.0000E-10  8.0000E-10
  11    0.000      1.0000E-10  1.0000E-10  1.0000E-10  1.0000E-10  1.0000E-10  1.0000E-10  2.0000E-10  5.0000E-10   0.000    
  12   1.0000E-10  1.0000E-10  1.0000E-10  1.0000E-10  1.0000E-10  1.0000E-10  1.0000E-10  1.0000E-10  2.0000E-10   0.000    
  13   1.0000E-10  1.0000E-10  2.0000E-10  2.0000E-10  2.0000E-10  2.0000E-10  2.0000E-10  1.0000E-10  1.0000E-10   0.000    
  14    0.000      2.0000E-10  5.0000E-10  5.0000E-10  5.0000E-10  5.0000E-10  5.0000E-10  2.0000E-10  1.0000E-10   0.000    
  15    0.000       0.000      8.0000E-10  8.0000E-10  8.0000E-10  8.0000E-10   0.000       0.000       0.000       0.000    

                  ET RATE =  5.000000E-10

 USING ET EXTINCTION DEPTH FROM PREVIOUS STRESS PERIOD. CURRENT PERIOD IS:      40

 USING EXTINCTION WATER CONTENT FROM PREVIOUS STRESS PERIOD. CURRENT PERIOD IS:      40

 USING AIR ENTRY PRESSURE FROM PREVIOUS STRESS PERIOD. CURRENT PERIOD IS:      40

 USING ROOT PRESSURE HEAD FROM PREVIOUS STRESS PERIOD. CURRENT PERIOD IS:      40

 USING ROOT ACTIVITY FROM PREVIOUS STRESS PERIOD. CURRENT PERIOD IS:      40

 PROCESSING AG STRESS PERIOD DATA

 READING AG STRESS PERIOD DATA

 READING IRRIGATION SEGMENT

 READING IRRIGATION WELL

 READING SUPPLEMENTAL WELL

 END PROCESSING AG STRESS PERIOD DATA OPTIONS
 
 SOLVING FOR HEAD 
                                                   Max.-Head-Change                         Max.-Flux-Residual
  Residual-Control   Outer-Iter.   Inner-Iter.     Column Row Layer    Maximum-Head-Change  Column Row Layer    Maximum-Flux-Residual          L2-NORM 
          0                 1           2             4   13     1       0.1132476569E-01       4   13    1         0.6507386556E+00      0.1524667858E+01
          0                 2           2             4   13     1      -0.1089942065E-02       4   13    1        -0.6439548969E-01      0.1501270348E+00
          0                 3           1             4   13     1       0.7312598319E-04       4   13    1         0.4442094639E-02      0.1029278169E-01

    ------------------------------------------------
       NWT REQUIRED            3 OUTER ITERATIONS 
       AND A TOTAL OF          5 INNER ITERATIONS.
    ------------------------------------------------

 NO OUTPUT CONTROL FOR STRESS PERIOD   40   TIME STEP    1
 
 SOLVING FOR HEAD 
                                                   Max.-Head-Change                         Max.-Flux-Residual
  Residual-Control   Outer-Iter.   Inner-Iter.     Column Row Layer    Maximum-Head-Change  Column Row Layer    Maximum-Flux-Residual          L2-NORM 
          0                 1           2             4   13     1       0.1024975765E-01       4   13    1         0.5886487928E+00      0.1458877421E+01
          0                 2           2             4   13     1      -0.9864478033E-03       4   13    1        -0.5824908282E-01      0.1438180293E+00
          0                 3           1             4   13     1       0.6617914198E-04       4   13    1         0.4017870536E-02      0.9876678460E-02

    ------------------------------------------------
       NWT REQUIRED            3 OUTER ITERATIONS 
       AND A TOTAL OF          5 INNER ITERATIONS.
    ------------------------------------------------

 NO OUTPUT CONTROL FOR STRESS PERIOD   40   TIME STEP    2
 
 SOLVING FOR HEAD 
                                                   Max.-Head-Change                         Max.-Flux-Residual
  Residual-Control   Outer-Iter.   Inner-Iter.     Column Row Layer    Maximum-Head-Change  Column Row Layer    Maximum-Flux-Residual          L2-NORM 
          0                 1           2             4   13     1       0.9282039892E-02       4   13    1         0.5327733184E+00      0.1400638926E+01
          0                 2           2             4   13     1      -0.8932820867E-03       4   13    1        -0.5271784007E-01      0.1382371135E+00
          0                 3           1             4   13     1       0.5992489114E-04       4   13    1         0.3636077485E-02      0.9508381322E-02

    ------------------------------------------------
       NWT REQUIRED            3 OUTER ITERATIONS 
       AND A TOTAL OF          5 INNER ITERATIONS.
    ------------------------------------------------

 NO OUTPUT CONTROL FOR STRESS PERIOD   40   TIME STEP    3
 
 SOLVING FOR HEAD 
                                                   Max.-Head-Change                         Max.-Flux-Residual
  Residual-Control   Outer-Iter.   Inner-Iter.     Column Row Layer    Maximum-Head-Change  Column Row Layer    Maximum-Flux-Residual          L2-NORM 
          0                 1           2             4   13     1       0.8410554178E-02       4   13    1         0.4824706703E+00      0.1349096547E+01
          0                 2           2             4   13     1      -0.8093665241E-03       4   13    1        -0.4773744588E-01      0.1332997950E+00
          0                 3           1             4   13     1       0.5429965218E-04       4   13    1         0.3292825865E-02      0.9182343378E-02

    ------------------------------------------------
       NWT REQUIRED            3 OUTER ITERATIONS 
       AND A TOTAL OF          5 INNER ITERATIONS.
    ------------------------------------------------

 NO OUTPUT CONTROL FOR STRESS PERIOD   40   TIME STEP    4
 
 SOLVING FOR HEAD 
                                                   Max.-Head-Change                         Max.-Flux-Residual
  Residual-Control   Outer-Iter.   Inner-Iter.     Column Row Layer    Maximum-Head-Change  Column Row Layer    Maximum-Flux-Residual          L2-NORM 
          0                 1           2             2   13     1       0.7678344407E-02       4   13    1         0.4371737095E+00      0.1303496375E+01
          0                 2           2             4   13     1      -0.7337813015E-03       4   13    1        -0.4325290451E-01      0.1289344770E+00
          0                 3           1             4   13     1       0.4922526801E-04       4   13    1         0.2983239710E-02      0.8895341696E-02

    ------------------------------------------------
       NWT REQUIRED            3 OUTER ITERATIONS 
       AND A TOTAL OF          5 INNER ITERATIONS.
    ------------------------------------------------

 NO OUTPUT CONTROL FOR STRESS PERIOD   40   TIME STEP    5
 
 SOLVING FOR HEAD 
                                                   Max.-Head-Change                         Max.-Flux-Residual
  Residual-Control   Outer-Iter.   Inner-Iter.     Column Row Layer    Maximum-Head-Change  Column Row Layer    Maximum-Flux-Residual          L2-NORM 
          0                 1           2             2   13     1       0.7104808170E-02       2   13    1         0.4001105126E+00      0.1263138547E+01
          0                 2           2             4   13     1      -0.6656553412E-03       4   13    1        -0.3921233090E-01      0.1250712131E+00
          0                 3           1             4   13     1       0.4464953833E-04       4   13    1         0.2704190024E-02      0.8640970036E-02

    ------------------------------------------------
       NWT REQUIRED            3 OUTER ITERATIONS 
       AND A TOTAL OF          5 INNER ITERATIONS.
    ------------------------------------------------

 NO OUTPUT CONTROL FOR STRESS PERIOD   40   TIME STEP    6
 
 SOLVING FOR HEAD 
                                                   Max.-Head-Change                         Max.-Flux-Residual
  Residual-Control   Outer-Iter.   Inner-Iter.     Column Row Layer    Maximum-Head-Change  Column Row Layer    Maximum-Flux-Residual          L2-NORM 
          0                 1           2             4    7     1       0.6626349610E-02       2   13    1         0.3702140946E+00      0.1227398575E+01
          0                 2           2             4    7     1      -0.6445638723E-03       4   13    1        -0.3557264669E-01      0.1216511525E+00
          0                 3           1             4    7     1       0.4389240243E-04       4   13    1         0.2451873206E-02      0.8414787454E-02

    ------------------------------------------------
       NWT REQUIRED            3 OUTER ITERATIONS 
       AND A TOTAL OF          5 INNER ITERATIONS.
    ------------------------------------------------

 NO OUTPUT CONTROL FOR STRESS PERIOD   40   TIME STEP    7
 
 SOLVING FOR HEAD 
                                                   Max.-Head-Change                         Max.-Flux-Residual
  Residual-Control   Outer-Iter.   Inner-Iter.     Column Row Layer    Maximum-Head-Change  Column Row Layer    Maximum-Flux-Residual          L2-NORM 
          0                 1           2             4    7     1       0.6579931129E-02       4    7    1         0.3442970176E+00      0.1195718781E+01
          0                 2           2             4    7     1      -0.6400486052E-03       4    7    1        -0.3442975111E-01      0.1186193952E+00
          0                 3           1             4    7     1       0.4358492965E-04       4    7    1         0.2410083153E-02      0.8215298705E-02

    ------------------------------------------------
       NWT REQUIRED            3 OUTER ITERATIONS 
       AND A TOTAL OF          5 INNER ITERATIONS.
    ------------------------------------------------

 NO OUTPUT CONTROL FOR STRESS PERIOD   40   TIME STEP    8
 
 SOLVING FOR HEAD 
                                                   Max.-Head-Change                         Max.-Flux-Residual
  Residual-Control   Outer-Iter.   Inner-Iter.     Column Row Layer    Maximum-Head-Change  Column Row Layer    Maximum-Flux-Residual          L2-NORM 
          0                 1           2             4    7     1       0.6534181404E-02       4    7    1         0.3418829381E+00      0.1167584351E+01
          0                 2           2             4    7     1      -0.6355983903E-03       4    7    1        -0.3418834220E-01      0.1159262458E+00
          0                 3           1             4    7     1       0.4328188716E-04       4    7    1         0.2393184536E-02      0.8038533920E-02

    ------------------------------------------------
       NWT REQUIRED            3 OUTER ITERATIONS 
       AND A TOTAL OF          5 INNER ITERATIONS.
    ------------------------------------------------

 NO OUTPUT CONTROL FOR STRESS PERIOD   40   TIME STEP    9
 
 SOLVING FOR HEAD 
                                                   Max.-Head-Change                         Max.-Flux-Residual
  Residual-Control   Outer-Iter.   Inner-Iter.     Column Row Layer    Maximum-Head-Change  Column Row Layer    Maximum-Flux-Residual          L2-NORM 
          0                 1           2             4    7     1       0.6489083067E-02       4    7    1         0.3395035324E+00      0.1142561949E+01
          0                 2           2             4    7     1      -0.6312115381E-03       4    7    1        -0.3395040070E-01      0.1135299772E+00
          0                 3           1             4    7     1       0.4298315886E-04       4    7    1         0.2376528632E-02      0.7880855246E-02

    ------------------------------------------------
       NWT REQUIRED            3 OUTER ITERATIONS 
       AND A TOTAL OF          5 INNER ITERATIONS.
    ------------------------------------------------

 NO OUTPUT CONTROL FOR STRESS PERIOD   40   TIME STEP   10
 
 SOLVING FOR HEAD 
                                                   Max.-Head-Change                         Max.-Flux-Residual
  Residual-Control   Outer-Iter.   Inner-Iter.     Column Row Layer    Maximum-Head-Change  Column Row Layer    Maximum-Flux-Residual          L2-NORM 
          0                 1           2             4    7     1       0.6444748424E-02       4    7    1         0.3371652378E+00      0.1120251787E+01
          0                 2           2             4    7     1      -0.6268989729E-03       4    7    1        -0.3371657034E-01      0.1113915888E+00
          0                 3           1             4    7     1       0.4268948946E-04       4    7    1         0.2360160495E-02      0.7739215492E-02

    ------------------------------------------------
       NWT REQUIRED            3 OUTER ITERATIONS 
       AND A TOTAL OF          5 INNER ITERATIONS.
    ------------------------------------------------

 NO OUTPUT CONTROL FOR STRESS PERIOD   40   TIME STEP   11
 
 SOLVING FOR HEAD 
                                                   Max.-Head-Change                         Max.-Flux-Residual
  Residual-Control   Outer-Iter.   Inner-Iter.     Column Row Layer    Maximum-Head-Change  Column Row Layer    Maximum-Flux-Residual          L2-NORM 
          0                 1           2             4    7     1       0.6401023482E-02       4    7    1         0.3348592019E+00      0.1100306528E+01
          0                 2           2             4    7     1      -0.6226457158E-03       4    7    1        -0.3348596589E-01      0.1094781932E+00
          0                 3           1             4    7     1       0.4239985853E-04       4    7    1         0.2344018193E-02      0.7613161379E-02

    ------------------------------------------------
       NWT REQUIRED            3 OUTER ITERATIONS 
       AND A TOTAL OF          5 INNER ITERATIONS.
    ------------------------------------------------

 NO OUTPUT CONTROL FOR STRESS PERIOD   40   TIME STEP   12
 
 SOLVING FOR HEAD 
                                                   Max.-Head-Change                         Max.-Flux-Residual
  Residual-Control   Outer-Iter.   Inner-Iter.     Column Row Layer    Maximum-Head-Change  Column Row Layer    Maximum-Flux-Residual          L2-NORM 
          0                 1           2             4    7     1       0.6357883440E-02       4    7    1         0.3325847781E+00      0.1082419248E+01
          0                 2           2             4    7     1      -0.6184493531E-03       4    7    1        -0.3325852264E-01      0.1077605245E+00
          0                 3           1             4    7     1       0.4211410171E-04       4    7    1         0.2328097161E-02      0.7499061894E-02

    ------------------------------------------------
       NWT REQUIRED            3 OUTER ITERATIONS 
       AND A TOTAL OF          5 INNER ITERATIONS.
    ------------------------------------------------

 NO OUTPUT CONTROL FOR STRESS PERIOD   40   TIME STEP   13
 
 SOLVING FOR HEAD 
                                                   Max.-Head-Change                         Max.-Flux-Residual
  Residual-Control   Outer-Iter.   Inner-Iter.     Column Row Layer    Maximum-Head-Change  Column Row Layer    Maximum-Flux-Residual          L2-NORM 
          0                 1           2             4    7     1       0.6315453418E-02       4    7    1         0.3303480183E+00      0.1066330251E+01
          0                 2           2             4    7     1      -0.6143220566E-03       4    7    1        -0.3303484584E-01      0.1062136745E+00
          0                 3           1             4    7     1       0.4183304841E-04       4    7    1         0.2312439784E-02      0.7396119976E-02

    ------------------------------------------------
       NWT REQUIRED            3 OUTER ITERATIONS 
       AND A TOTAL OF          5 INNER ITERATIONS.
    ------------------------------------------------

 NO OUTPUT CONTROL FOR STRESS PERIOD   40   TIME STEP   14
 
 SOLVING FOR HEAD 
                                                   Max.-Head-Change                         Max.-Flux-Residual
  Residual-Control   Outer-Iter.   Inner-Iter.     Column Row Layer    Maximum-Head-Change  Column Row Layer    Maximum-Flux-Residual          L2-NORM 
          0                 1           2             4    7     1       0.6273574078E-02       4    7    1         0.3281407341E+00      0.1051795017E+01
          0                 2           2             4    7     1      -0.6102483272E-03       4    7    1        -0.3281411662E-01      0.1048139877E+00
          0                 3           1             4    7     1       0.4155564296E-04       4    7    1         0.2296988747E-02      0.7303301408E-02

    ------------------------------------------------
       NWT REQUIRED            3 OUTER ITERATIONS 
       AND A TOTAL OF          5 INNER ITERATIONS.
    ------------------------------------------------

 NO OUTPUT CONTROL FOR STRESS PERIOD   40   TIME STEP   15
 
 SOLVING FOR HEAD 
                                                   Max.-Head-Change                         Max.-Flux-Residual
  Residual-Control   Outer-Iter.   Inner-Iter.     Column Row Layer    Maximum-Head-Change  Column Row Layer    Maximum-Flux-Residual          L2-NORM 
          0                 1           2             4    7     1       0.6232231660E-02       4    7    1         0.3259620018E+00      0.1038619882E+01
          0                 2           2             4    7     1      -0.6062268254E-03       4    7    1        -0.3259624260E-01      0.1035435530E+00
          0                 3           1             4    7     1       0.4128179400E-04       4    7    1         0.2281737563E-02      0.7218860485E-02

    ------------------------------------------------
       NWT REQUIRED            3 OUTER ITERATIONS 
       AND A TOTAL OF          5 INNER ITERATIONS.
    ------------------------------------------------

 NO OUTPUT CONTROL FOR STRESS PERIOD   40   TIME STEP   16
 
 SOLVING FOR HEAD 
                                                   Max.-Head-Change                         Max.-Flux-Residual
  Residual-Control   Outer-Iter.   Inner-Iter.     Column Row Layer    Maximum-Head-Change  Column Row Layer    Maximum-Flux-Residual          L2-NORM 
          0                 1           2             4    7     1       0.6191544153E-02       4    7    1         0.3238184464E+00      0.1026625083E+01
          0                 2           2             4    7     1      -0.6022690297E-03       4    7    1        -0.3238188631E-01      0.1023853085E+00
          0                 3           1             4    7     1       0.4101228255E-04       4    7    1         0.2266732637E-02      0.7141576379E-02

    ------------------------------------------------
       NWT REQUIRED            3 OUTER ITERATIONS 
       AND A TOTAL OF          5 INNER ITERATIONS.
    ------------------------------------------------

 NO OUTPUT CONTROL FOR STRESS PERIOD   40   TIME STEP   17
 
 SOLVING FOR HEAD 
                                                   Max.-Head-Change                         Max.-Flux-Residual
  Residual-Control   Outer-Iter.   Inner-Iter.     Column Row Layer    Maximum-Head-Change  Column Row Layer    Maximum-Flux-Residual          L2-NORM 
          0                 1           2             4    7     1       0.6151358782E-02       4    7    1         0.3217015088E+00      0.1015654910E+01
          0                 2           2             4    7     1      -0.5983600782E-03       4    7    1        -0.3217019183E-01      0.1013236858E+00
          0                 3           1             4    7     1       0.4074609801E-04       4    7    1         0.2251914024E-02      0.7070637935E-02

    ------------------------------------------------
       NWT REQUIRED            3 OUTER ITERATIONS 
       AND A TOTAL OF          5 INNER ITERATIONS.
    ------------------------------------------------

 NO OUTPUT CONTROL FOR STRESS PERIOD   40   TIME STEP   18
 
 SOLVING FOR HEAD 
                                                   Max.-Head-Change                         Max.-Flux-Residual
  Residual-Control   Outer-Iter.   Inner-Iter.     Column Row Layer    Maximum-Head-Change  Column Row Layer    Maximum-Flux-Residual          L2-NORM 
          0                 1           2             4    7     1       0.6111795660E-02       4    7    1         0.3196179446E+00      0.1005583692E+01
          0                 2           2             4    7     1      -0.5945116545E-03       4    7    1        -0.3196183469E-01      0.1003475180E+00
          0                 3           1             4    7     1       0.4048403443E-04       4    7    1         0.2237329016E-02      0.7004996427E-02

    ------------------------------------------------
       NWT REQUIRED            3 OUTER ITERATIONS 
       AND A TOTAL OF          5 INNER ITERATIONS.
    ------------------------------------------------

 NO OUTPUT CONTROL FOR STRESS PERIOD   40   TIME STEP   19
 
 SOLVING FOR HEAD 
                                                   Max.-Head-Change                         Max.-Flux-Residual
  Residual-Control   Outer-Iter.   Inner-Iter.     Column Row Layer    Maximum-Head-Change  Column Row Layer    Maximum-Flux-Residual          L2-NORM 
          0                 1           2             4    7     1       0.6072704239E-02       4    7    1         0.3175593048E+00      0.9963009471E+00
          0                 2           2             4    7     1      -0.5907091144E-03       4    7    1        -0.3175596998E-01      0.9944628663E-01
          0                 3           1             4    7     1       0.4022509577E-04       4    7    1         0.2222918486E-02      0.6944426550E-02

    ------------------------------------------------
       NWT REQUIRED            3 OUTER ITERATIONS 
       AND A TOTAL OF          5 INNER ITERATIONS.
    ------------------------------------------------

 NO OUTPUT CONTROL FOR STRESS PERIOD   40   TIME STEP   20
 
 SOLVING FOR HEAD 
                                                   Max.-Head-Change                         Max.-Flux-Residual
  Residual-Control   Outer-Iter.   Inner-Iter.     Column Row Layer    Maximum-Head-Change  Column Row Layer    Maximum-Flux-Residual          L2-NORM 
          0                 1           2             4    7     1       0.6034207320E-02       4    7    1         0.3155324605E+00      0.9877003985E+00
          0                 2           2             4    7     1      -0.5869644044E-03       4    7    1        -0.3155328491E-01      0.9860931294E-01
          0                 3           1             4    7     1       0.3997009487E-04       4    7    1         0.2208730527E-02      0.6887981944E-02

    ------------------------------------------------
       NWT REQUIRED            3 OUTER ITERATIONS 
       AND A TOTAL OF          5 INNER ITERATIONS.
    ------------------------------------------------

 NO OUTPUT CONTROL FOR STRESS PERIOD   40   TIME STEP   21
 
 SOLVING FOR HEAD 
                                                   Max.-Head-Change                         Max.-Flux-Residual
  Residual-Control   Outer-Iter.   Inner-Iter.     Column Row Layer    Maximum-Head-Change  Column Row Layer    Maximum-Flux-Residual          L2-NORM 
          0                 1           2             4    7     1       0.5996015867E-02       4    7    1         0.3135217629E+00      0.9796909405E+00
          0                 2           2             4    7     1      -0.5832494075E-03       4    7    1        -0.3135221448E-01      0.9782855494E-01
          0                 3           1             4    7     1       0.3971711741E-04       4    7    1         0.2194655594E-02      0.6834941290E-02

    ------------------------------------------------
       NWT REQUIRED            3 OUTER ITERATIONS 
       AND A TOTAL OF          5 INNER ITERATIONS.
    ------------------------------------------------

 NO OUTPUT CONTROL FOR STRESS PERIOD   40   TIME STEP   22
 
 SOLVING FOR HEAD 
                                                   Max.-Head-Change                         Max.-Flux-Residual
  Residual-Control   Outer-Iter.   Inner-Iter.     Column Row Layer    Maximum-Head-Change  Column Row Layer    Maximum-Flux-Residual          L2-NORM 
          0                 1           2             4    7     1       0.5958533175E-02       4    7    1         0.3115489193E+00      0.9722188143E+00
          0                 2           2             4    7     1      -0.5796033545E-03       4    7    1        -0.3115492949E-01      0.9709929644E-01
          0                 3           1             4    7     1       0.3946883496E-04       4    7    1         0.2180845659E-02      0.6785719697E-02

    ------------------------------------------------
       NWT REQUIRED            3 OUTER ITERATIONS 
       AND A TOTAL OF          5 INNER ITERATIONS.
    ------------------------------------------------

 NO OUTPUT CONTROL FOR STRESS PERIOD   40   TIME STEP   23
 
 SOLVING FOR HEAD 
                                                   Max.-Head-Change                         Max.-Flux-Residual
  Residual-Control   Outer-Iter.   Inner-Iter.     Column Row Layer    Maximum-Head-Change  Column Row Layer    Maximum-Flux-Residual          L2-NORM 
          0                 1           2             4    7     1       0.5921462813E-02       4    7    1         0.3095981466E+00      0.9651978929E+00
          0                 2           2             4    7     1      -0.5759974096E-03       4    7    1        -0.3095985159E-01      0.9641214665E-01
          0                 3           1             4    7     1       0.3922328349E-04       4    7    1         0.2167190195E-02      0.6738910370E-02

    ------------------------------------------------
       NWT REQUIRED            3 OUTER ITERATIONS 
       AND A TOTAL OF          5 INNER ITERATIONS.
    ------------------------------------------------

 NO OUTPUT CONTROL FOR STRESS PERIOD   40   TIME STEP   24
 
 SOLVING FOR HEAD 
                                                   Max.-Head-Change                         Max.-Flux-Residual
  Residual-Control   Outer-Iter.   Inner-Iter.     Column Row Layer    Maximum-Head-Change  Column Row Layer    Maximum-Flux-Residual          L2-NORM 
          0                 1           2             4    7     1       0.5884798341E-02       4    7    1         0.3076687525E+00      0.9585888678E+00
          0                 2           2             4    7     1      -0.5724309469E-03       4    7    1        -0.3076691155E-01      0.9576465599E-01
          0                 3           1             4    7     1       0.3898042085E-04       4    7    1         0.2153684395E-02      0.6694849513E-02

    ------------------------------------------------
       NWT REQUIRED            3 OUTER ITERATIONS 
       AND A TOTAL OF          5 INNER ITERATIONS.
    ------------------------------------------------

 NO OUTPUT CONTROL FOR STRESS PERIOD   40   TIME STEP   25
 
 SOLVING FOR HEAD 
                                                   Max.-Head-Change                         Max.-Flux-Residual
  Residual-Control   Outer-Iter.   Inner-Iter.     Column Row Layer    Maximum-Head-Change  Column Row Layer    Maximum-Flux-Residual          L2-NORM 
          0                 1           2             4    7     1       0.5848666379E-02       4    7    1         0.3057677422E+00      0.9523451350E+00
          0                 2           2             4    7     1      -0.5689162836E-03       4    7    1        -0.3057680993E-01      0.9515176165E-01
          0                 3           1             4    7     1       0.3874108548E-04       4    7    1         0.2140377290E-02      0.6652852133E-02

    ------------------------------------------------
       NWT REQUIRED            3 OUTER ITERATIONS 
       AND A TOTAL OF          5 INNER ITERATIONS.
    ------------------------------------------------

 NO OUTPUT CONTROL FOR STRESS PERIOD   40   TIME STEP   26
 
 SOLVING FOR HEAD 
                                                   Max.-Head-Change                         Max.-Flux-Residual
  Residual-Control   Outer-Iter.   Inner-Iter.     Column Row Layer    Maximum-Head-Change  Column Row Layer    Maximum-Flux-Residual          L2-NORM 
          0                 1           2             4    7     1       0.5812916418E-02       4    7    1         0.3038870026E+00      0.9464125549E+00
          0                 2           2             4    7     1      -0.5654387786E-03       4    7    1        -0.3038873540E-01      0.9456854105E-01
          0                 3           1             4    7     1       0.3850428014E-04       4    7    1         0.2127212063E-02      0.6613050010E-02

    ------------------------------------------------
       NWT REQUIRED            3 OUTER ITERATIONS 
       AND A TOTAL OF          5 INNER ITERATIONS.
    ------------------------------------------------

 NO OUTPUT CONTROL FOR STRESS PERIOD   40   TIME STEP   27
 
 SOLVING FOR HEAD 
                                                   Max.-Head-Change                         Max.-Flux-Residual
  Residual-Control   Outer-Iter.   Inner-Iter.     Column Row Layer    Maximum-Head-Change  Column Row Layer    Maximum-Flux-Residual          L2-NORM 
          0                 1           2             4    7     1       0.5777543041E-02       4    7    1         0.3020260693E+00      0.9407765302E+00
          0                 2           2             4    7     1      -0.5619979053E-03       4    7    1        -0.3020264149E-01      0.9401392778E-01
          0                 3           1             4    7     1       0.3826996994E-04       4    7    1         0.2114185500E-02      0.6575286525E-02

    ------------------------------------------------
       NWT REQUIRED            3 OUTER ITERATIONS 
       AND A TOTAL OF          5 INNER ITERATIONS.
    ------------------------------------------------

 NO OUTPUT CONTROL FOR STRESS PERIOD   40   TIME STEP   28
 
 SOLVING FOR HEAD 
                                                   Max.-Head-Change                         Max.-Flux-Residual
  Residual-Control   Outer-Iter.   Inner-Iter.     Column Row Layer    Maximum-Head-Change  Column Row Layer    Maximum-Flux-Residual          L2-NORM 
          0                 1           2             4    7     1       0.5742666620E-02       4    7    1         0.3001920005E+00      0.9353785563E+00
          0                 2           2             4    7     1      -0.5586053723E-03       4    7    1        -0.3001923407E-01      0.9348196893E-01
          0                 3           1             4    7     1       0.3803895079E-04       4    7    1         0.2101346965E-02      0.6538648762E-02

    ------------------------------------------------
       NWT REQUIRED            3 OUTER ITERATIONS 
       AND A TOTAL OF          5 INNER ITERATIONS.
    ------------------------------------------------

 NO OUTPUT CONTROL FOR STRESS PERIOD   40   TIME STEP   29
 
 SOLVING FOR HEAD 
                                                   Max.-Head-Change                         Max.-Flux-Residual
  Residual-Control   Outer-Iter.   Inner-Iter.     Column Row Layer    Maximum-Head-Change  Column Row Layer    Maximum-Flux-Residual          L2-NORM 
          0                 1           2             4    7     1       0.5708278207E-02       4    7    1         0.2983836982E+00      0.9302201057E+00
          0                 2           2             4    7     1      -0.5552603095E-03       4    7    1        -0.2983840330E-01      0.9297262829E-01
          0                 3           1             4    7     1       0.3781116448E-04       4    7    1         0.2088688812E-02      0.6503539056E-02

    ------------------------------------------------
       NWT REQUIRED            3 OUTER ITERATIONS 
       AND A TOTAL OF          5 INNER ITERATIONS.
    ------------------------------------------------

 NO OUTPUT CONTROL FOR STRESS PERIOD   40   TIME STEP   30



 STREAM LISTING     PERIOD     40   STEP       30

 LAYER ROW COL. STREAM  RCH.  FLOW INTO     FLOW TO   FLOW OUT OF   OVRLND.     DIRECT     STREAM       STREAM     STREAM     STREAM   STREAMBED  STREAMBED
                SEG.NO.  NO.  STRM. RCH.    AQUIFER    STRM. RCH.    RUNOFF     PRECIP       ET          HEAD       DEPTH      WIDTH   CONDCTNC.   GRADIENT

   1    1    1     1     1    3.6749E+01  2.9261E-01   3.6456E+01  0.000E+00  0.000E+00  0.000E+00  1.09435E+03  1.306E+00  1.510E+01  6.795E-02  1.435E+00
   1    2    2     1     2    3.6456E+01  4.5309E-01   3.6003E+01  0.000E+00  0.000E+00  0.000E+00  1.08936E+03  1.303E+00  1.504E+01  1.053E-01  1.434E+00
   1    3    3     1     3    3.6003E+01  3.8635E-01   3.5617E+01  0.000E+00  0.000E+00  0.000E+00  1.08372E+03  1.300E+00  1.497E+01  8.985E-02  1.433E+00
   1    3    4     1     4    3.5617E+01  3.5571E-01   3.5261E+01  0.000E+00  0.000E+00  0.000E+00  1.07870E+03  1.297E+00  1.492E+01  8.278E-02  1.432E+00
   1    4    5     2     1    3.3261E+01  3.4544E-01   3.2916E+01  0.000E+00  0.000E+00  0.000E+00  1.07336E+03  1.429E+00  1.200E+01  7.800E-02  1.476E+00
   1    5    6     2     2    3.2916E+01  2.6525E-01   3.2650E+01  0.000E+00  0.000E+00  0.000E+00  1.06793E+03  1.421E+00  1.200E+01  6.000E-02  1.474E+00
   1    6    6     2     3    3.2650E+01  2.6483E-01   3.2386E+01  0.000E+00  0.000E+00  0.000E+00  1.06321E+03  1.414E+00  1.200E+01  6.000E-02  1.471E+00
   1    7    6     2     4    3.2386E+01  2.6442E-01   3.2121E+01  0.000E+00  0.000E+00  0.000E+00  1.05848E+03  1.407E+00  1.200E+01  6.000E-02  1.469E+00
   1    8    6     2     5    3.2121E+01  2.6400E-01   3.1857E+01  0.000E+00  0.000E+00  0.000E+00  1.05376E+03  1.400E+00  1.200E+01  6.000E-02  1.467E+00
   1    3    5     3     1    2.0000E+00  2.8252E-01   1.7175E+00  0.000E+00  0.000E+00  0.000E+00  1.07555E+03  1.909E+00  9.636E+00  7.227E-02  1.955E+00
   1    3    6     3     2    1.7175E+00  2.4905E-01   1.4684E+00  0.000E+00  0.000E+00  0.000E+00  1.07264E+03  1.727E+00  8.909E+00  6.682E-02  1.864E+00
   1    3    7     3     3    1.4684E+00  1.9718E-01   1.2712E+00  0.000E+00  0.000E+00  0.000E+00  1.06987E+03  1.555E+00  8.218E+00  5.547E-02  1.777E+00
   1    4    8     3     4    1.2712E+00  2.2567E-01   1.0456E+00  0.000E+00  0.000E+00  0.000E+00  1.06682E+03  1.364E+00  7.455E+00  6.709E-02  1.682E+00
   1    5    8     3     5    1.0456E+00  1.5790E-01   8.8768E-01  0.000E+00  0.000E+00  0.000E+00  1.06362E+03  1.164E+00  6.655E+00  4.991E-02  1.582E+00
   1    6    8     3     6    8.8768E-01  5.5980E-02   8.3170E-01  0.000E+00  0.000E+00  0.000E+00  1.06158E+03  1.036E+00  6.145E+00  1.844E-02  1.518E+00
   1    5   10     4     1    1.0000E+01  9.0919E-02   9.9091E+00  0.000E+00  0.000E+00  0.000E+00  1.07836E+03  6.368E-01  1.000E+01  2.500E-02  1.212E+00
   1    5    9     4     2    9.9091E+00  1.8158E-01   9.7275E+00  0.000E+00  0.000E+00  0.000E+00  1.07154E+03  6.315E-01  1.000E+01  5.000E-02  1.211E+00
   1    6    8     4     3    9.7275E+00  1.2689E-01   9.6006E+00  0.000E+00  0.000E+00  0.000E+00  1.06381E+03  6.256E-01  1.000E+01  3.500E-02  1.209E+00
   1    6    8     5     1    1.0432E+01  2.2686E-01   1.0205E+01  0.000E+00  0.000E+00  0.000E+00  1.05868E+03  6.790E-01  1.542E+01  6.166E-02  1.226E+00
   1    7    7     5     2    1.0205E+01  2.7894E-01   9.9265E+00  0.000E+00  0.000E+00  0.000E+00  1.05417E+03  6.732E-01  1.519E+01  7.594E-02  1.224E+00
   1    8    7     5     3    9.9265E+00  1.9221E-01   9.7343E+00  0.000E+00  0.000E+00  0.000E+00  1.04992E+03  6.676E-01  1.497E+01  5.241E-02  1.223E+00
   1    8    6     5     4    9.7343E+00  1.3577E-01   9.5985E+00  0.000E+00  0.000E+00  0.000E+00  1.04691E+03  6.637E-01  1.482E+01  3.706E-02  1.221E+00
   1    9    6     6     1    4.1456E+01  2.7904E-01   4.1177E+01  0.000E+00  0.000E+00  0.000E+00  1.04438E+03  1.651E+00  1.200E+01  6.000E-02  1.550E+00
   1   10    7     6     2    4.1177E+01  2.7863E-01   4.0898E+01  0.000E+00  0.000E+00  0.000E+00  1.03983E+03  1.644E+00  1.200E+01  6.000E-02  1.548E+00
   1   11    7     6     3    4.0898E+01  2.7823E-01   4.0620E+01  0.000E+00  0.000E+00  0.000E+00  1.03527E+03  1.637E+00  1.200E+01  6.000E-02  1.546E+00
   1   12    7     6     4    4.0620E+01  2.7783E-01   4.0342E+01  0.000E+00  0.000E+00  0.000E+00  1.03072E+03  1.630E+00  1.200E+01  6.000E-02  1.543E+00
   1   13    7     6     5    4.0342E+01  2.1894E-02   4.0320E+01  0.000E+00  0.000E+00  0.000E+00  1.02754E+03  1.627E+00  1.200E+01  2.400E-02  3.041E-01
   1   14    9     7     1    1.5000E+02  1.3879E+00   1.4861E+02  0.000E+00  0.000E+00  0.000E+00  1.03987E+03  2.288E+00  5.529E+01  5.593E-01  8.272E-01
   1   13    8     7     2    1.4861E+02  1.9874E+00   1.4662E+02  0.000E+00  0.000E+00  0.000E+00  1.03478E+03  2.279E+00  5.525E+01  6.147E-01  1.078E+00
   1   13    7     7     3    1.4662E+02  1.7110E+00   1.4491E+02  0.000E+00  0.000E+00  0.000E+00  1.02969E+03  2.269E+00  5.521E+01  5.584E-01  1.021E+00
   1   13    6     8     1    1.8523E+02  1.2206E+00   1.8401E+02  0.000E+00  0.000E+00  0.000E+00  1.02492E+03  3.045E+00  4.415E+01  4.499E-01  9.043E-01
   1   13    5     8     2    1.8401E+02  4.2167E-01   1.8359E+02  0.000E+00  0.000E+00  0.000E+00  1.01866E+03  3.040E+00  4.408E+01  4.492E-01  3.129E-01
   1   13    4     8     3    1.8359E+02 -1.6752E+00   1.8527E+02  0.000E+00  0.000E+00  0.000E+00  1.01242E+03  3.044E+00  4.413E+01  4.497E+00 -1.242E-01
   1   13    3     8     4    1.8527E+02 -3.2463E+00   1.8851E+02  0.000E+00  0.000E+00  0.000E+00  1.00618E+03  3.059E+00  4.435E+01  4.520E+00 -2.394E-01
   1   13    2     8     5    1.8851E+02 -2.4090E+00   1.9092E+02  0.000E+00  0.000E+00  0.000E+00  9.99951E+02  3.076E+00  4.461E+01  4.545E+00 -1.767E-01
   1   13    1     8     6    1.9092E+02 -1.8724E+00   1.9279E+02  0.000E+00  0.000E+00  0.000E+00  9.94964E+02  3.089E+00  4.479E+01  2.739E+00 -2.279E-01
   1    8    6     9     1    0.0000E+00  0.0000E+00   0.0000E+00  0.000E+00  0.000E+00  0.000E+00  1.07875E+03  0.000E+00  4.000E+00  0.000E+00  1.000E+00
   1    8    5     9     2    0.0000E+00  0.0000E+00   0.0000E+00  0.000E+00  0.000E+00  0.000E+00  1.07825E+03  0.000E+00  4.000E+00  0.000E+00  1.000E+00





UNSATURATED ZONE PACKAGE VOLUMETRIC BUDGET FOR  TIME STEP    30 STRESS PERIOD   40
  ------------------------------------------------------------------------------



     CUMULATIVE VOLUMES      L**3       RATES FOR THIS TIME STEP      L**3/T
     ------------------                 ------------------------

           IN:                                      IN:
           ---                                      ---
        INFILTRATION =  1294811427.0690          INFILTRATION =           0.8475

          OUT:                                     OUT:
          ----                                     ----
              UZF ET =  1288631482.6847                UZF ET =           0.7500
        UZF RECHARGE =       73224.0000          UZF RECHARGE =       0.0000E+00

            IN - OUT =     6106720.3843              IN - OUT =       9.7500E-02

          STORAGE:                                 STORAGE:
          --------                                 --------
      STORAGE CHANGE =     6106723.6060        STORAGE CHANGE =       9.7500E-02

 PERCENT DISCREPANCY IS DIFFERENCE BETWEEN IN-OUT MINUS CHANGE IN STORAGE
 DIVIDED BY THE AVERAGE OF IN AND OUT TIMES 100

 PERCENT DISCREPANCY =           0.00     PERCENT DISCREPANCY =           0.00






1
  VOLUMETRIC BUDGET FOR AGRICULTURAL FIELDS AT  END OF TIME STEP   30, STRESS PERIOD  40
  ------------------------------------------------------------------------------

     CUMULATIVE VOLUMES      L**3       RATES FOR THIS TIME STEP      L**3/T
     ------------------                 ------------------------

           IN:                                      IN:
           ---                                      ---
           AG WELLS      =   605950784.0000             AG WELLS      =           0.0000
      DIVERSION SEGMENTS =   601916864.0000        DIVERSION SEGMENTS =           0.0000
           GW IRRIGATION =           0.0000             GW IRRIGATION =           0.0000
           SW IRRIGATION =           0.0000             SW IRRIGATION =           0.0000
        SYSTEM LOSSES GW =           0.0000          SYSTEM LOSSES GW =           0.0000
        SYSTEM LOSSES SW =           0.0000          SYSTEM LOSSES SW =           0.0000

                TOTAL IN =  1207867648.0000                  TOTAL IN =           0.0000

          OUT:                                     OUT:
          ----                                     ----
           AG WELLS      =           0.0000             AG WELLS      =           0.0000
      DIVERSION SEGMENTS =           0.0000        DIVERSION SEGMENTS =           0.0000
           GW IRRIGATION =   605950784.0000             GW IRRIGATION =           0.0000
           SW IRRIGATION =   601926656.0000             SW IRRIGATION =           0.0000
        SYSTEM LOSSES GW =           0.0000          SYSTEM LOSSES GW =           0.0000
        SYSTEM LOSSES SW =           0.0000          SYSTEM LOSSES SW =           0.0000

               TOTAL OUT =  1207877376.0000                 TOTAL OUT =           0.0000

                IN - OUT =       -9728.0000                  IN - OUT =           0.0000

     PERCENT DISCREPANCY =          -0.00         PERCENT DISCREPANCY =           0.00



1
  VOLUMETRIC BUDGET FOR ENTIRE MODEL AT END OF TIME STEP   30, STRESS PERIOD  40
  ------------------------------------------------------------------------------

     CUMULATIVE VOLUMES      L**3       RATES FOR THIS TIME STEP      L**3/T
     ------------------                 ------------------------

           IN:                                      IN:
           ---                                      ---
             STORAGE     =   905904576.0000               STORAGE     =           1.2659
       CONSTANT HEAD     =           0.0000         CONSTANT HEAD     =           0.0000
     HEAD DEP BOUNDS     =    29603440.0000       HEAD DEP BOUNDS     =           0.2893
      STREAM LEAKAGE     =  1213930368.0000        STREAM LEAKAGE     =          13.1575
        UZF RECHARGE     =       73223.9531          UZF RECHARGE     =           0.0000
               GW ET     =           0.0000                 GW ET     =           0.0000
     SURFACE LEAKAGE     =           0.0000       SURFACE LEAKAGE     =           0.0000
           AG WELLS      =           0.0000             AG WELLS      =           0.0000

                TOTAL IN =  2149511680.0000                  TOTAL IN =          14.7127

          OUT:                                     OUT:
          ----                                     ----
             STORAGE     =   482326848.0000               STORAGE     =           5.2203
       CONSTANT HEAD     =           0.0000         CONSTANT HEAD     =           0.0000
     HEAD DEP BOUNDS     =    29545364.0000       HEAD DEP BOUNDS     =           0.2906
      STREAM LEAKAGE     =  1031705408.0000        STREAM LEAKAGE     =           9.2029
        UZF RECHARGE     =           0.0000          UZF RECHARGE     =           0.0000
               GW ET     =           0.0000                 GW ET     =           0.0000
     SURFACE LEAKAGE     =           0.0000       SURFACE LEAKAGE     =           0.0000
           AG WELLS      =   605950784.0000             AG WELLS      =           0.0000

               TOTAL OUT =  2149528320.0000                 TOTAL OUT =          14.7138

                IN - OUT =      -16640.0000                  IN - OUT =      -1.1282E-03

     PERCENT DISCREPANCY =          -0.00         PERCENT DISCREPANCY =          -0.01






         TIME SUMMARY AT END OF TIME STEP   30 IN STRESS PERIOD   40
                    SECONDS     MINUTES      HOURS       DAYS        YEARS
                    -----------------------------------------------------------
   TIME STEP LENGTH  87667.      1461.1      24.352      1.0147     2.77799E-03
 STRESS PERIOD TIME 2.63000E+06  43833.      730.56      30.440     8.33397E-02
         TOTAL TIME 1.02656E+08 1.71093E+06  28515.      1188.1      3.2530    
1
1
                            STRESS PERIOD NO.   41, LENGTH =   2630000.    
                            -----------------------------------------------

                              NUMBER OF TIME STEPS =    30

                               MULTIPLIER FOR DELT =     1.000

                            INITIAL TIME STEP SIZE =   87666.66    

 REUSING NON-PARAMETER GHB CELLS FROM LAST STRESS PERIOD

      2 GHB CELLS

 REUSING STREAM SEGMENT DATA FROM LAST STRESS PERIOD



            AREAL INFILTRATION RATE
 READING ON UNIT   19 WITH FORMAT: (FREE)              

            1           2           3           4           5           6           7           8           9          10
 ........................................................................................................................
   1   1.0000E-10  2.0000E-10   0.000       0.000       0.000       0.000       0.000       0.000       0.000       0.000    
   2   2.0000E-10  1.0000E-10  2.0000E-10   0.000       0.000      8.0000E-10  8.0000E-10  5.0000E-10   0.000       0.000    
   3    0.000      5.0000E-10  1.0000E-10  1.0000E-10  8.0000E-10  8.0000E-10  5.0000E-10  5.0000E-10   0.000       0.000    
   4   8.0000E-10  5.0000E-10  1.0000E-10  1.0000E-10  1.0000E-10  1.0000E-10  1.0000E-10  1.0000E-10  2.0000E-10   0.000    
   5   8.0000E-10  5.0000E-10  1.0000E-10  1.0000E-10  1.0000E-10  1.0000E-10  1.0000E-10  1.0000E-10  1.0000E-10  1.0000E-10
   6   8.0000E-10  5.0000E-10  5.0000E-10  2.0000E-10  2.0000E-10  1.0000E-10  1.0000E-10  1.0000E-10  1.0000E-10  5.0000E-10
   7   8.0000E-10  5.0000E-10  5.0000E-10  2.0000E-10  2.0000E-10  1.0000E-10  1.0000E-10  2.0000E-10  2.0000E-10   0.000    
   8    0.000      5.0000E-10  5.0000E-10  2.0000E-10  2.0000E-10  1.0000E-10  1.0000E-10  2.0000E-10  5.0000E-10   0.000    
   9    0.000      5.0000E-10  5.0000E-10  2.0000E-10  2.0000E-10  1.0000E-10  1.0000E-10  2.0000E-10  5.0000E-10   0.000    
  10    0.000      5.0000E-10  5.0000E-10  2.0000E-10  2.0000E-10  1.0000E-10  1.0000E-10  2.0000E-10  5.0000E-10  8.0000E-10
  11    0.000      1.0000E-10  1.0000E-10  1.0000E-10  1.0000E-10  1.0000E-10  1.0000E-10  2.0000E-10  5.0000E-10   0.000    
  12   1.0000E-10  1.0000E-10  1.0000E-10  1.0000E-10  1.0000E-10  1.0000E-10  1.0000E-10  1.0000E-10  2.0000E-10   0.000    
  13   1.0000E-10  1.0000E-10  2.0000E-10  2.0000E-10  2.0000E-10  2.0000E-10  2.0000E-10  1.0000E-10  1.0000E-10   0.000    
  14    0.000      2.0000E-10  5.0000E-10  5.0000E-10  5.0000E-10  5.0000E-10  5.0000E-10  2.0000E-10  1.0000E-10   0.000    
  15    0.000       0.000      8.0000E-10  8.0000E-10  8.0000E-10  8.0000E-10   0.000       0.000       0.000       0.000    

                  ET RATE =  2.500000E-08

 USING ET EXTINCTION DEPTH FROM PREVIOUS STRESS PERIOD. CURRENT PERIOD IS:      41

 USING EXTINCTION WATER CONTENT FROM PREVIOUS STRESS PERIOD. CURRENT PERIOD IS:      41

 USING AIR ENTRY PRESSURE FROM PREVIOUS STRESS PERIOD. CURRENT PERIOD IS:      41

 USING ROOT PRESSURE HEAD FROM PREVIOUS STRESS PERIOD. CURRENT PERIOD IS:      41

 USING ROOT ACTIVITY FROM PREVIOUS STRESS PERIOD. CURRENT PERIOD IS:      41

 PROCESSING AG STRESS PERIOD DATA

 READING AG STRESS PERIOD DATA

 READING IRRIGATION SEGMENT

 READING IRRIGATION WELL

 READING SUPPLEMENTAL WELL

 END PROCESSING AG STRESS PERIOD DATA OPTIONS
 
 SOLVING FOR HEAD 
                                                   Max.-Head-Change                         Max.-Flux-Residual
  Residual-Control   Outer-Iter.   Inner-Iter.     Column Row Layer    Maximum-Head-Change  Column Row Layer    Maximum-Flux-Residual          L2-NORM 
          0                 1           2             4    7     1       0.5674227847E-02       4    7    1         0.2965933590E+00      0.9252646135E+00
          0                 2           2             4    7     1      -0.5519481301E-03       4    7    1        -0.2965936885E-01      0.9248304888E-01
          0                 3           1             4    7     1       0.3758561758E-04       4    7    1         0.2076156405E-02      0.6470087233E-02

    ------------------------------------------------
       NWT REQUIRED            3 OUTER ITERATIONS 
       AND A TOTAL OF          5 INNER ITERATIONS.
    ------------------------------------------------

 NO OUTPUT CONTROL FOR STRESS PERIOD   41   TIME STEP    1
 
 SOLVING FOR HEAD 
                                                   Max.-Head-Change                         Max.-Flux-Residual
  Residual-Control   Outer-Iter.   Inner-Iter.     Column Row Layer    Maximum-Head-Change  Column Row Layer    Maximum-Flux-Residual          L2-NORM 
          0                 1           2             4    7     1       0.5640511008E-02       4    7    1         0.2948205473E+00      0.9204910611E+00
          0                 2           2             4    7     1      -0.5486683935E-03       4    7    1        -0.2948208717E-01      0.9201073331E-01
          0                 3           1             4    7     1       0.3736227990E-04       4    7    1         0.2063746686E-02      0.6437360472E-02

    ------------------------------------------------
       NWT REQUIRED            3 OUTER ITERATIONS 
       AND A TOTAL OF          5 INNER ITERATIONS.
    ------------------------------------------------

 NO OUTPUT CONTROL FOR STRESS PERIOD   41   TIME STEP    2
 
 SOLVING FOR HEAD 
                                                   Max.-Head-Change                         Max.-Flux-Residual
  Residual-Control   Outer-Iter.   Inner-Iter.     Column Row Layer    Maximum-Head-Change  Column Row Layer    Maximum-Flux-Residual          L2-NORM 
          0                 1           2             4    7     1       0.5607390294E-02       4    7    1         0.2930797076E+00      0.9158867366E+00
          0                 2           2             4    7     1      -0.5454466438E-03       4    7    1        -0.2930800269E-01      0.9155476931E-01
          0                 3           1             4    7     1       0.3714289052E-04       4    7    1         0.2051560778E-02      0.6402016436E-02

    ------------------------------------------------
       NWT REQUIRED            3 OUTER ITERATIONS 
       AND A TOTAL OF          5 INNER ITERATIONS.
    ------------------------------------------------

 NO OUTPUT CONTROL FOR STRESS PERIOD   41   TIME STEP    3
 
 SOLVING FOR HEAD 
                                                   Max.-Head-Change                         Max.-Flux-Residual
  Residual-Control   Outer-Iter.   Inner-Iter.     Column Row Layer    Maximum-Head-Change  Column Row Layer    Maximum-Flux-Residual          L2-NORM 
          0                 1           2             4    7     1       0.5574439866E-02       4    7    1         0.2913477569E+00      0.9067122134E+00
          0                 2           2             4    7     1      -0.5422414580E-03       4    7    1        -0.2913480712E-01      0.9065411836E-01
          0                 3           1             4    7     1       0.3692462924E-04       4    7    1         0.2039437077E-02      0.6344186546E-02

    ------------------------------------------------
       NWT REQUIRED            3 OUTER ITERATIONS 
       AND A TOTAL OF          5 INNER ITERATIONS.
    ------------------------------------------------

 NO OUTPUT CONTROL FOR STRESS PERIOD   41   TIME STEP    4
 
 SOLVING FOR HEAD 
                                                   Max.-Head-Change                         Max.-Flux-Residual
  Residual-Control   Outer-Iter.   Inner-Iter.     Column Row Layer    Maximum-Head-Change  Column Row Layer    Maximum-Flux-Residual          L2-NORM 
          0                 1           2             4    7     1       0.5541873115E-02       4    7    1         0.2896393148E+00      0.9033838315E+00
          0                 2           2             4    7     1      -0.5390735954E-03       4    7    1        -0.2896396249E-01      0.9016407113E-01
          0                 3           1             4    7     1       0.3670890996E-04       4    7    1         0.2027477962E-02      0.6295719947E-02

    ------------------------------------------------
       NWT REQUIRED            3 OUTER ITERATIONS 
       AND A TOTAL OF          5 INNER ITERATIONS.
    ------------------------------------------------

 NO OUTPUT CONTROL FOR STRESS PERIOD   41   TIME STEP    5
 
 SOLVING FOR HEAD 
                                                   Max.-Head-Change                         Max.-Flux-Residual
  Residual-Control   Outer-Iter.   Inner-Iter.     Column Row Layer    Maximum-Head-Change  Column Row Layer    Maximum-Flux-Residual          L2-NORM 
          0                 1           2             4    7     1       0.5509683228E-02       4    7    1         0.2879507649E+00      0.8941923793E+00
          0                 2           2             4    7     1      -0.5359423903E-03       4    7    1        -0.2879510705E-01      0.8927117077E-01
          0                 3           1             4    7     1       0.3649568651E-04       4    7    1         0.2015658075E-02      0.6235256870E-02

    ------------------------------------------------
       NWT REQUIRED            3 OUTER ITERATIONS 
       AND A TOTAL OF          5 INNER ITERATIONS.
    ------------------------------------------------

 NO OUTPUT CONTROL FOR STRESS PERIOD   41   TIME STEP    6
 
 SOLVING FOR HEAD 
                                                   Max.-Head-Change                         Max.-Flux-Residual
  Residual-Control   Outer-Iter.   Inner-Iter.     Column Row Layer    Maximum-Head-Change  Column Row Layer    Maximum-Flux-Residual          L2-NORM 
          0                 1           2             4    7     1       0.5477727937E-02       4    7    1         0.2862744150E+00      0.8859746358E+00
          0                 2           2             4    7     1      -0.5328340052E-03       4    7    1        -0.2862747162E-01      0.8847156636E-01
          0                 3           1             4    7     1       0.3628401682E-04       4    7    1         0.2003923589E-02      0.6180999726E-02

    ------------------------------------------------
       NWT REQUIRED            3 OUTER ITERATIONS 
       AND A TOTAL OF          5 INNER ITERATIONS.
    ------------------------------------------------

 NO OUTPUT CONTROL FOR STRESS PERIOD   41   TIME STEP    7
 
 SOLVING FOR HEAD 
                                                   Max.-Head-Change                         Max.-Flux-Residual
  Residual-Control   Outer-Iter.   Inner-Iter.     Column Row Layer    Maximum-Head-Change  Column Row Layer    Maximum-Flux-Residual          L2-NORM 
          0                 1           2             4    7     1       0.5446008014E-02       4    7    1         0.2846102286E+00      0.8785757700E+00
          0                 2           2             4    7     1      -0.5297485154E-03       4    7    1        -0.2846105255E-01      0.8775115863E-01
          0                 3           1             4    7     1       0.3607390646E-04       4    7    1         0.1992274254E-02      0.6132929551E-02

    ------------------------------------------------
       NWT REQUIRED            3 OUTER ITERATIONS 
       AND A TOTAL OF          5 INNER ITERATIONS.
    ------------------------------------------------

 NO OUTPUT CONTROL FOR STRESS PERIOD   41   TIME STEP    8
 
 SOLVING FOR HEAD 
                                                   Max.-Head-Change                         Max.-Flux-Residual
  Residual-Control   Outer-Iter.   Inner-Iter.     Column Row Layer    Maximum-Head-Change  Column Row Layer    Maximum-Flux-Residual          L2-NORM 
          0                 1           2             4    7     1       0.5414791535E-02       4    7    1         0.2829729259E+00      0.8718770775E+00
          0                 2           2             4    7     1      -0.5267119970E-03       4    7    1        -0.2829732187E-01      0.8709780641E-01
          0                 3           1             4    7     1       0.3586713129E-04       4    7    1         0.1980813112E-02      0.6088573124E-02

    ------------------------------------------------
       NWT REQUIRED            3 OUTER ITERATIONS 
       AND A TOTAL OF          5 INNER ITERATIONS.
    ------------------------------------------------

 NO OUTPUT CONTROL FOR STRESS PERIOD   41   TIME STEP    9
 
 SOLVING FOR HEAD 
                                                   Max.-Head-Change                         Max.-Flux-Residual
  Residual-Control   Outer-Iter.   Inner-Iter.     Column Row Layer    Maximum-Head-Change  Column Row Layer    Maximum-Flux-Residual          L2-NORM 
          0                 1           2             4    7     1       0.5383660091E-02       4    7    1         0.2813397055E+00      0.8657593667E+00
          0                 2           2             4    7     1      -0.5236837503E-03       4    7    1        -0.2813399942E-01      0.8649977272E-01
          0                 3           1             4    7     1       0.3566091870E-04       4    7    1         0.1969380525E-02      0.6047963884E-02

    ------------------------------------------------
       NWT REQUIRED            3 OUTER ITERATIONS 
       AND A TOTAL OF          5 INNER ITERATIONS.
    ------------------------------------------------

 NO OUTPUT CONTROL FOR STRESS PERIOD   41   TIME STEP   10
 
 SOLVING FOR HEAD 
                                                   Max.-Head-Change                         Max.-Flux-Residual
  Residual-Control   Outer-Iter.   Inner-Iter.     Column Row Layer    Maximum-Head-Change  Column Row Layer    Maximum-Flux-Residual          L2-NORM 
          0                 1           2             4    7     1       0.5352890055E-02       4    7    1         0.2797255746E+00      0.8601403500E+00
          0                 2           2             4    7     1      -0.5206906589E-03       4    7    1        -0.2797258593E-01      0.8594962827E-01
          0                 3           1             4    7     1       0.3545710065E-04       4    7    1         0.1958081595E-02      0.6010637139E-02

    ------------------------------------------------
       NWT REQUIRED            3 OUTER ITERATIONS 
       AND A TOTAL OF          5 INNER ITERATIONS.
    ------------------------------------------------

 NO OUTPUT CONTROL FOR STRESS PERIOD   41   TIME STEP   11
 
 SOLVING FOR HEAD 
                                                   Max.-Head-Change                         Max.-Flux-Residual
  Residual-Control   Outer-Iter.   Inner-Iter.     Column Row Layer    Maximum-Head-Change  Column Row Layer    Maximum-Flux-Residual          L2-NORM 
          0                 1           2             4    7     1       0.5322475023E-02       4    7    1         0.2781301823E+00      0.8549420164E+00
          0                 2           2             4    7     1      -0.5177320997E-03       4    7    1        -0.2781304629E-01      0.8543967828E-01
          0                 3           1             4    7     1       0.3525563395E-04       4    7    1         0.1946913824E-02      0.5975634372E-02

    ------------------------------------------------
       NWT REQUIRED            3 OUTER ITERATIONS 
       AND A TOTAL OF          5 INNER ITERATIONS.
    ------------------------------------------------

 NO OUTPUT CONTROL FOR STRESS PERIOD   41   TIME STEP   12
 
 SOLVING FOR HEAD 
                                                   Max.-Head-Change                         Max.-Flux-Residual
  Residual-Control   Outer-Iter.   Inner-Iter.     Column Row Layer    Maximum-Head-Change  Column Row Layer    Maximum-Flux-Residual          L2-NORM 
          0                 1           2             4    7     1       0.5292276295E-02       4    7    1         0.2765458560E+00      0.8501100386E+00
          0                 2           2             4    7     1      -0.5147945810E-03       4    7    1        -0.2765461327E-01      0.8496485532E-01
          0                 3           1             4    7     1       0.3505559935E-04       4    7    1         0.1935823500E-02      0.5943216982E-02

    ------------------------------------------------
       NWT REQUIRED            3 OUTER ITERATIONS 
       AND A TOTAL OF          5 INNER ITERATIONS.
    ------------------------------------------------

 NO OUTPUT CONTROL FOR STRESS PERIOD   41   TIME STEP   13
 
 SOLVING FOR HEAD 
                                                   Max.-Head-Change                         Max.-Flux-Residual
  Residual-Control   Outer-Iter.   Inner-Iter.     Column Row Layer    Maximum-Head-Change  Column Row Layer    Maximum-Flux-Residual          L2-NORM 
          0                 1           2             4    7     1       0.5262425482E-02       4    7    1         0.2749800854E+00      0.8455744002E+00
          0                 2           2             4    7     1      -0.5118909054E-03       4    7    1        -0.2749803584E-01      0.8451834467E-01
          0                 3           1             4    7     1       0.3485786996E-04       4    7    1         0.1924863081E-02      0.5912650871E-02

    ------------------------------------------------
       NWT REQUIRED            3 OUTER ITERATIONS 
       AND A TOTAL OF          5 INNER ITERATIONS.
    ------------------------------------------------

 NO OUTPUT CONTROL FOR STRESS PERIOD   41   TIME STEP   14
 
 SOLVING FOR HEAD 
                                                   Max.-Head-Change                         Max.-Flux-Residual
  Residual-Control   Outer-Iter.   Inner-Iter.     Column Row Layer    Maximum-Head-Change  Column Row Layer    Maximum-Flux-Residual          L2-NORM 
          0                 1           2             4    7     1       0.5232916428E-02       4    7    1         0.2734323538E+00      0.8413044656E+00
          0                 2           2             4    7     1      -0.5090204734E-03       4    7    1        -0.2734326228E-01      0.8409761321E-01
          0                 3           1             4    7     1       0.3466240458E-04       4    7    1         0.1914028941E-02      0.5883892591E-02

    ------------------------------------------------
       NWT REQUIRED            3 OUTER ITERATIONS 
       AND A TOTAL OF          5 INNER ITERATIONS.
    ------------------------------------------------

 NO OUTPUT CONTROL FOR STRESS PERIOD   41   TIME STEP   15
 
 SOLVING FOR HEAD 
                                                   Max.-Head-Change                         Max.-Flux-Residual
  Residual-Control   Outer-Iter.   Inner-Iter.     Column Row Layer    Maximum-Head-Change  Column Row Layer    Maximum-Flux-Residual          L2-NORM 
          0                 1           2             4    7     1       0.5203608938E-02       4    7    1         0.2718950011E+00      0.8372604799E+00
          0                 2           2             4    7     1      -0.5061696483E-03       4    7    1        -0.2718952665E-01      0.8369836135E-01
          0                 3           1             4    7     1       0.3446827392E-04       4    7    1         0.1903267442E-02      0.5856412239E-02

    ------------------------------------------------
       NWT REQUIRED            3 OUTER ITERATIONS 
       AND A TOTAL OF          5 INNER ITERATIONS.
    ------------------------------------------------

 NO OUTPUT CONTROL FOR STRESS PERIOD   41   TIME STEP   16
 
 SOLVING FOR HEAD 
                                                   Max.-Head-Change                         Max.-Flux-Residual
  Residual-Control   Outer-Iter.   Inner-Iter.     Column Row Layer    Maximum-Head-Change  Column Row Layer    Maximum-Flux-Residual          L2-NORM 
          0                 1           2             4    7     1       0.5174500291E-02       4    7    1         0.2703680993E+00      0.8334008970E+00
          0                 2           2             4    7     1      -0.5033381652E-03       4    7    1        -0.2703683610E-01      0.8331644603E-01
          0                 3           1             4    7     1       0.3427546047E-04       4    7    1         0.1892579098E-02      0.5829949313E-02

    ------------------------------------------------
       NWT REQUIRED            3 OUTER ITERATIONS 
       AND A TOTAL OF          5 INNER ITERATIONS.
    ------------------------------------------------

 NO OUTPUT CONTROL FOR STRESS PERIOD   41   TIME STEP   17
 
 SOLVING FOR HEAD 
                                                   Max.-Head-Change                         Max.-Flux-Residual
  Residual-Control   Outer-Iter.   Inner-Iter.     Column Row Layer    Maximum-Head-Change  Column Row Layer    Maximum-Flux-Residual          L2-NORM 
          0                 1           2             4    7     1       0.5145725360E-02       4    7    1         0.2688588480E+00      0.8297050905E+00
          0                 2           2             4    7     1      -0.5005391435E-03       4    7    1        -0.2688591061E-01      0.8295061651E-01
          0                 3           1             4    7     1       0.3408485718E-04       4    7    1         0.1882014301E-02      0.5804762674E-02

    ------------------------------------------------
       NWT REQUIRED            3 OUTER ITERATIONS 
       AND A TOTAL OF          5 INNER ITERATIONS.
    ------------------------------------------------

 NO OUTPUT CONTROL FOR STRESS PERIOD   41   TIME STEP   18
 
 SOLVING FOR HEAD 
                                                   Max.-Head-Change                         Max.-Flux-Residual
  Residual-Control   Outer-Iter.   Inner-Iter.     Column Row Layer    Maximum-Head-Change  Column Row Layer    Maximum-Flux-Residual          L2-NORM 
          0                 1           2             4    7     1       0.5117280084E-02       4    7    1         0.2673668996E+00      0.8261574944E+00
          0                 2           2             4    7     1      -0.4977721885E-03       4    7    1        -0.2673671541E-01      0.8259891300E-01
          0                 3           1             4    7     1       0.3389643792E-04       4    7    1         0.1871570645E-02      0.5780431884E-02

    ------------------------------------------------
       NWT REQUIRED            3 OUTER ITERATIONS 
       AND A TOTAL OF          5 INNER ITERATIONS.
    ------------------------------------------------

 NO OUTPUT CONTROL FOR STRESS PERIOD   41   TIME STEP   19
 
 SOLVING FOR HEAD 
                                                   Max.-Head-Change                         Max.-Flux-Residual
  Residual-Control   Outer-Iter.   Inner-Iter.     Column Row Layer    Maximum-Head-Change  Column Row Layer    Maximum-Flux-Residual          L2-NORM 
          0                 1           2             4    7     1       0.5089024264E-02       4    7    1         0.2658847022E+00      0.8227385093E+00
          0                 2           2             4    7     1      -0.4950236632E-03       4    7    1        -0.2658849534E-01      0.8225959121E-01
          0                 3           1             4    7     1       0.3370927422E-04       4    7    1         0.1861195270E-02      0.5756876079E-02

    ------------------------------------------------
       NWT REQUIRED            3 OUTER ITERATIONS 
       AND A TOTAL OF          5 INNER ITERATIONS.
    ------------------------------------------------

 NO OUTPUT CONTROL FOR STRESS PERIOD   41   TIME STEP   20
 
 SOLVING FOR HEAD 
                                                   Max.-Head-Change                         Max.-Flux-Residual
  Residual-Control   Outer-Iter.   Inner-Iter.     Column Row Layer    Maximum-Head-Change  Column Row Layer    Maximum-Flux-Residual          L2-NORM 
          0                 1           2             4    7     1       0.5061090356E-02       4    7    1         0.2644196691E+00      0.8194265389E+00
          0                 2           2             4    7     1      -0.4923064502E-03       4    7    1        -0.2644199168E-01      0.8193060351E-01
          0                 3           1             4    7     1       0.3352424151E-04       4    7    1         0.1850939988E-02      0.5734053407E-02

    ------------------------------------------------
       NWT REQUIRED            3 OUTER ITERATIONS 
       AND A TOTAL OF          5 INNER ITERATIONS.
    ------------------------------------------------

 NO OUTPUT CONTROL FOR STRESS PERIOD   41   TIME STEP   21
 
 SOLVING FOR HEAD 
                                                   Max.-Head-Change                         Max.-Flux-Residual
  Residual-Control   Outer-Iter.   Inner-Iter.     Column Row Layer    Maximum-Head-Change  Column Row Layer    Maximum-Flux-Residual          L2-NORM 
          0                 1           2             4    7     1       0.5033340391E-02       4    7    1         0.2629639854E+00      0.8162075380E+00
          0                 2           2             4    7     1      -0.4896071302E-03       4    7    1        -0.2629642297E-01      0.8161037473E-01
          0                 3           1             4    7     1       0.3334042803E-04       4    7    1         0.1840750178E-02      0.5711581437E-02

    ------------------------------------------------
       NWT REQUIRED            3 OUTER ITERATIONS 
       AND A TOTAL OF          5 INNER ITERATIONS.
    ------------------------------------------------

 NO OUTPUT CONTROL FOR STRESS PERIOD   41   TIME STEP   22
 
 SOLVING FOR HEAD 
                                                   Max.-Head-Change                         Max.-Flux-Residual
  Residual-Control   Outer-Iter.   Inner-Iter.     Column Row Layer    Maximum-Head-Change  Column Row Layer    Maximum-Flux-Residual          L2-NORM 
          0                 1           2             4    7     1       0.5005905335E-02       4    7    1         0.2615251803E+00      0.8130753583E+00
          0                 2           2             4    7     1      -0.4869384424E-03       4    7    1        -0.2615254214E-01      0.8129892224E-01
          0                 3           1             4    7     1       0.3315870012E-04       4    7    1         0.1830678506E-02      0.5690100683E-02

    ------------------------------------------------
       NWT REQUIRED            3 OUTER ITERATIONS 
       AND A TOTAL OF          5 INNER ITERATIONS.
    ------------------------------------------------

 NO OUTPUT CONTROL FOR STRESS PERIOD   41   TIME STEP   23
 
 SOLVING FOR HEAD 
                                                   Max.-Head-Change                         Max.-Flux-Residual
  Residual-Control   Outer-Iter.   Inner-Iter.     Column Row Layer    Maximum-Head-Change  Column Row Layer    Maximum-Flux-Residual          L2-NORM 
          0                 1           2             4    7     1       0.4978781361E-02       4    7    1         0.2601027028E+00      0.8100216303E+00
          0                 2           2             4    7     1      -0.4843000147E-03       4    7    1        -0.2601029405E-01      0.8099492043E-01
          0                 3           1             4    7     1       0.3297903327E-04       4    7    1         0.1820721156E-02      0.5668982823E-02

    ------------------------------------------------
       NWT REQUIRED            3 OUTER ITERATIONS 
       AND A TOTAL OF          5 INNER ITERATIONS.
    ------------------------------------------------

 NO OUTPUT CONTROL FOR STRESS PERIOD   41   TIME STEP   24
 
 SOLVING FOR HEAD 
                                                   Max.-Head-Change                         Max.-Flux-Residual
  Residual-Control   Outer-Iter.   Inner-Iter.     Column Row Layer    Maximum-Head-Change  Column Row Layer    Maximum-Flux-Residual          L2-NORM 
          0                 1           2             4    7     1       0.4951829535E-02       4    7    1         0.2586890130E+00      0.8070378789E+00
          0                 2           2             4    7     1      -0.4816783322E-03       4    7    1        -0.2586892477E-01      0.8069750169E-01
          0                 3           1             4    7     1       0.3280050625E-04       4    7    1         0.1810825294E-02      0.5648115766E-02

    ------------------------------------------------
       NWT REQUIRED            3 OUTER ITERATIONS 
       AND A TOTAL OF          5 INNER ITERATIONS.
    ------------------------------------------------

 NO OUTPUT CONTROL FOR STRESS PERIOD   41   TIME STEP   25
 
 SOLVING FOR HEAD 
                                                   Max.-Head-Change                         Max.-Flux-Residual
  Residual-Control   Outer-Iter.   Inner-Iter.     Column Row Layer    Maximum-Head-Change  Column Row Layer    Maximum-Flux-Residual          L2-NORM 
          0                 1           2             4    7     1       0.4925182118E-02       4    7    1         0.2572915905E+00      0.8041095795E+00
          0                 2           2             4    7     1      -0.4790862605E-03       4    7    1        -0.2572918220E-01      0.8040578192E-01
          0                 3           1             4    7     1       0.3262399579E-04       4    7    1         0.1801043313E-02      0.5627960933E-02

    ------------------------------------------------
       NWT REQUIRED            3 OUTER ITERATIONS 
       AND A TOTAL OF          5 INNER ITERATIONS.
    ------------------------------------------------

 NO OUTPUT CONTROL FOR STRESS PERIOD   41   TIME STEP   26
 
 SOLVING FOR HEAD 
                                                   Max.-Head-Change                         Max.-Flux-Residual
  Residual-Control   Outer-Iter.   Inner-Iter.     Column Row Layer    Maximum-Head-Change  Column Row Layer    Maximum-Flux-Residual          L2-NORM 
          0                 1           2             4    7     1       0.4898690915E-02       4    7    1         0.2559026094E+00      0.8005471731E+00
          0                 2           2             4    7     1      -0.4765093844E-03       4    7    1        -0.2559028379E-01      0.8003244204E-01
          0                 3           1             4    7     1       0.3244852008E-04       4    7    1         0.1791320427E-02      0.5600237843E-02

    ------------------------------------------------
       NWT REQUIRED            3 OUTER ITERATIONS 
       AND A TOTAL OF          5 INNER ITERATIONS.
    ------------------------------------------------

 NO OUTPUT CONTROL FOR STRESS PERIOD   41   TIME STEP   27
 
 SOLVING FOR HEAD 
                                                   Max.-Head-Change                         Max.-Flux-Residual
  Residual-Control   Outer-Iter.   Inner-Iter.     Column Row Layer    Maximum-Head-Change  Column Row Layer    Maximum-Flux-Residual          L2-NORM 
          0                 1           2             4    7     1       0.4872466247E-02       4    7    1         0.2545290695E+00      0.8091201400E+00
          0                 2           2             4    7     1      -0.4739584348E-03       4    7    1        -0.2545292949E-01      0.8077388010E-01
          0                 3           1             4    7     1       0.3227480982E-04       4    7    1         0.1781705625E-02      0.5641579563E-02

    ------------------------------------------------
       NWT REQUIRED            3 OUTER ITERATIONS 
       AND A TOTAL OF          5 INNER ITERATIONS.
    ------------------------------------------------

 NO OUTPUT CONTROL FOR STRESS PERIOD   41   TIME STEP   28
 
 SOLVING FOR HEAD 
                                                   Max.-Head-Change                         Max.-Flux-Residual
  Residual-Control   Outer-Iter.   Inner-Iter.     Column Row Layer    Maximum-Head-Change  Column Row Layer    Maximum-Flux-Residual          L2-NORM 
          0                 1           2             4    7     1       0.4846504188E-02       4    7    1         0.2531693487E+00      0.8027066024E+00
          0                 2           2             4    7     1      -0.4714330303E-03       4    7    1        -0.2531695715E-01      0.8015199361E-01
          0                 3           1             4    7     1       0.3210283924E-04       4    7    1         0.1772187556E-02      0.5599691515E-02

    ------------------------------------------------
       NWT REQUIRED            3 OUTER ITERATIONS 
       AND A TOTAL OF          5 INNER ITERATIONS.
    ------------------------------------------------

 NO OUTPUT CONTROL FOR STRESS PERIOD   41   TIME STEP   29
 
 SOLVING FOR HEAD 
                                                   Max.-Head-Change                         Max.-Flux-Residual
  Residual-Control   Outer-Iter.   Inner-Iter.     Column Row Layer    Maximum-Head-Change  Column Row Layer    Maximum-Flux-Residual          L2-NORM 
          0                 1           2             4    7     1       0.4820666490E-02       4    7    1         0.2518159019E+00      0.7968755403E+00
          0                 2           2             4    7     1      -0.4689197228E-03       4    7    1        -0.2518161219E-01      0.7958599677E-01
          0                 3           1             4    7     1       0.3193169263E-04       4    7    1         0.1762713413E-02      0.5561790943E-02

    ------------------------------------------------
       NWT REQUIRED            3 OUTER ITERATIONS 
       AND A TOTAL OF          5 INNER ITERATIONS.
    ------------------------------------------------

 NO OUTPUT CONTROL FOR STRESS PERIOD   41   TIME STEP   30



 STREAM LISTING     PERIOD     41   STEP       30

 LAYER ROW COL. STREAM  RCH.  FLOW INTO     FLOW TO   FLOW OUT OF   OVRLND.     DIRECT     STREAM       STREAM     STREAM     STREAM   STREAMBED  STREAMBED
                SEG.NO.  NO.  STRM. RCH.    AQUIFER    STRM. RCH.    RUNOFF     PRECIP       ET          HEAD       DEPTH      WIDTH   CONDCTNC.   GRADIENT

   1    1    1     1     1    2.3624E+01  2.3872E-01   2.3386E+01  0.000E+00  0.000E+00  0.000E+00  1.09421E+03  1.157E+00  1.276E+01  5.742E-02  1.386E+00
   1    2    2     1     2    2.3386E+01  3.6908E-01   2.3016E+01  0.000E+00  0.000E+00  0.000E+00  1.08921E+03  1.153E+00  1.270E+01  8.888E-02  1.384E+00
   1    3    3     1     3    2.3016E+01  3.1417E-01   2.2702E+01  0.000E+00  0.000E+00  0.000E+00  1.08357E+03  1.147E+00  1.263E+01  7.575E-02  1.382E+00
   1    3    4     1     4    2.2702E+01  2.8881E-01   2.2414E+01  0.000E+00  0.000E+00  0.000E+00  1.07855E+03  1.143E+00  1.256E+01  6.972E-02  1.381E+00
   1    4    5     2     1    2.0414E+01  3.1702E-01   2.0096E+01  0.000E+00  0.000E+00  0.000E+00  1.07300E+03  1.064E+00  1.200E+01  7.800E-02  1.355E+00
   1    5    6     2     2    2.0096E+01  2.4333E-01   1.9853E+01  0.000E+00  0.000E+00  0.000E+00  1.06756E+03  1.055E+00  1.200E+01  6.000E-02  1.352E+00
   1    6    6     2     3    1.9853E+01  2.4286E-01   1.9610E+01  0.000E+00  0.000E+00  0.000E+00  1.06284E+03  1.048E+00  1.200E+01  6.000E-02  1.349E+00
   1    7    6     2     4    1.9610E+01  2.4240E-01   1.9368E+01  0.000E+00  0.000E+00  0.000E+00  1.05812E+03  1.040E+00  1.200E+01  6.000E-02  1.347E+00
   1    8    6     2     5    1.9368E+01  2.4193E-01   1.9126E+01  0.000E+00  0.000E+00  0.000E+00  1.05339E+03  1.032E+00  1.200E+01  6.000E-02  1.344E+00
   1    3    5     3     1    2.0000E+00  2.8252E-01   1.7175E+00  0.000E+00  0.000E+00  0.000E+00  1.07555E+03  1.909E+00  9.636E+00  7.227E-02  1.955E+00
   1    3    6     3     2    1.7175E+00  2.4905E-01   1.4684E+00  0.000E+00  0.000E+00  0.000E+00  1.07264E+03  1.727E+00  8.909E+00  6.682E-02  1.864E+00
   1    3    7     3     3    1.4684E+00  1.9718E-01   1.2712E+00  0.000E+00  0.000E+00  0.000E+00  1.06987E+03  1.555E+00  8.218E+00  5.547E-02  1.777E+00
   1    4    8     3     4    1.2712E+00  2.2567E-01   1.0456E+00  0.000E+00  0.000E+00  0.000E+00  1.06682E+03  1.364E+00  7.455E+00  6.709E-02  1.682E+00
   1    5    8     3     5    1.0456E+00  1.5790E-01   8.8768E-01  0.000E+00  0.000E+00  0.000E+00  1.06362E+03  1.164E+00  6.655E+00  4.991E-02  1.582E+00
   1    6    8     3     6    8.8768E-01  5.5980E-02   8.3170E-01  0.000E+00  0.000E+00  0.000E+00  1.06158E+03  1.036E+00  6.145E+00  1.844E-02  1.518E+00
   1    5   10     4     1    1.0000E+01  9.0919E-02   9.9091E+00  0.000E+00  0.000E+00  0.000E+00  1.07836E+03  6.368E-01  1.000E+01  2.500E-02  1.212E+00
   1    5    9     4     2    9.9091E+00  1.8158E-01   9.7275E+00  0.000E+00  0.000E+00  0.000E+00  1.07154E+03  6.315E-01  1.000E+01  5.000E-02  1.211E+00
   1    6    8     4     3    9.7275E+00  1.2689E-01   9.6006E+00  0.000E+00  0.000E+00  0.000E+00  1.06381E+03  6.256E-01  1.000E+01  3.500E-02  1.209E+00
   1    6    8     5     1    1.0432E+01  2.2686E-01   1.0205E+01  0.000E+00  0.000E+00  0.000E+00  1.05868E+03  6.790E-01  1.542E+01  6.166E-02  1.226E+00
   1    7    7     5     2    1.0205E+01  2.7894E-01   9.9265E+00  0.000E+00  0.000E+00  0.000E+00  1.05417E+03  6.732E-01  1.519E+01  7.594E-02  1.224E+00
   1    8    7     5     3    9.9265E+00  1.9221E-01   9.7343E+00  0.000E+00  0.000E+00  0.000E+00  1.04992E+03  6.676E-01  1.497E+01  5.241E-02  1.223E+00
   1    8    6     5     4    9.7343E+00  1.3577E-01   9.5985E+00  0.000E+00  0.000E+00  0.000E+00  1.04691E+03  6.637E-01  1.482E+01  3.706E-02  1.221E+00
   1    9    6     6     1    2.8725E+01  2.5941E-01   2.8465E+01  0.000E+00  0.000E+00  0.000E+00  1.04405E+03  1.324E+00  1.200E+01  6.000E-02  1.441E+00
   1   10    7     6     2    2.8465E+01  2.5898E-01   2.8206E+01  0.000E+00  0.000E+00  0.000E+00  1.03950E+03  1.316E+00  1.200E+01  6.000E-02  1.439E+00
   1   11    7     6     3    2.8206E+01  2.5855E-01   2.7948E+01  0.000E+00  0.000E+00  0.000E+00  1.03495E+03  1.309E+00  1.200E+01  6.000E-02  1.436E+00
   1   12    7     6     4    2.7948E+01  2.5811E-01   2.7689E+01  0.000E+00  0.000E+00  0.000E+00  1.03039E+03  1.302E+00  1.200E+01  6.000E-02  1.434E+00
   1   13    7     6     5    2.7689E+01  1.3950E-02   2.7676E+01  0.000E+00  0.000E+00  0.000E+00  1.02721E+03  1.298E+00  1.200E+01  2.400E-02  1.938E-01
   1   14    9     7     1    1.5000E+02  1.3889E+00   1.4861E+02  0.000E+00  0.000E+00  0.000E+00  1.03987E+03  2.288E+00  5.529E+01  5.593E-01  8.277E-01
   1   13    8     7     2    1.4861E+02  1.9886E+00   1.4662E+02  0.000E+00  0.000E+00  0.000E+00  1.03478E+03  2.279E+00  5.525E+01  6.147E-01  1.078E+00
   1   13    7     7     3    1.4662E+02  1.7098E+00   1.4491E+02  0.000E+00  0.000E+00  0.000E+00  1.02969E+03  2.269E+00  5.521E+01  5.584E-01  1.021E+00
   1   13    6     8     1    1.7259E+02  1.1520E+00   1.7144E+02  0.000E+00  0.000E+00  0.000E+00  1.02484E+03  2.965E+00  4.300E+01  4.381E-01  8.764E-01
   1   13    5     8     2    1.7144E+02  3.7213E-01   1.7106E+02  0.000E+00  0.000E+00  0.000E+00  1.01859E+03  2.960E+00  4.292E+01  4.374E-01  2.836E-01
   1   13    4     8     3    1.7106E+02 -1.8625E+00   1.7293E+02  0.000E+00  0.000E+00  0.000E+00  1.01234E+03  2.965E+00  4.299E+01  4.381E+00 -1.417E-01
   1   13    3     8     4    1.7293E+02 -3.3962E+00   1.7632E+02  0.000E+00  0.000E+00  0.000E+00  1.00611E+03  2.982E+00  4.324E+01  4.406E+00 -2.569E-01
   1   13    2     8     5    1.7632E+02 -2.5695E+00   1.7889E+02  0.000E+00  0.000E+00  0.000E+00  9.99876E+02  3.001E+00  4.352E+01  4.434E+00 -1.932E-01
   1   13    1     8     6    1.7889E+02 -2.0080E+00   1.8090E+02  0.000E+00  0.000E+00  0.000E+00  9.94891E+02  3.016E+00  4.372E+01  2.673E+00 -2.504E-01
   1    8    6     9     1    0.0000E+00  0.0000E+00   0.0000E+00  0.000E+00  0.000E+00  0.000E+00  1.07875E+03  0.000E+00  4.000E+00  0.000E+00  1.000E+00
   1    8    5     9     2    0.0000E+00  0.0000E+00   0.0000E+00  0.000E+00  0.000E+00  0.000E+00  1.07825E+03  0.000E+00  4.000E+00  0.000E+00  1.000E+00





UNSATURATED ZONE PACKAGE VOLUMETRIC BUDGET FOR  TIME STEP    30 STRESS PERIOD   41
  ------------------------------------------------------------------------------



     CUMULATIVE VOLUMES      L**3       RATES FOR THIS TIME STEP      L**3/T
     ------------------                 ------------------------

           IN:                                      IN:
           ---                                      ---
        INFILTRATION =  1297040351.9418          INFILTRATION =           0.8475

          OUT:                                     OUT:
          ----                                     ----
              UZF ET =  1292123886.7210                UZF ET =           0.8475
        UZF RECHARGE =       73224.0000          UZF RECHARGE =       0.0000E+00

            IN - OUT =     4843241.2207              IN - OUT =       0.0000E+00

          STORAGE:                                 STORAGE:
          --------                                 --------
      STORAGE CHANGE =     4843244.4460        STORAGE CHANGE =       7.4696E-16

 PERCENT DISCREPANCY IS DIFFERENCE BETWEEN IN-OUT MINUS CHANGE IN STORAGE
 DIVIDED BY THE AVERAGE OF IN AND OUT TIMES 100

 PERCENT DISCREPANCY =           0.00     PERCENT DISCREPANCY =           0.00






1
  VOLUMETRIC BUDGET FOR AGRICULTURAL FIELDS AT  END OF TIME STEP   30, STRESS PERIOD  41
  ------------------------------------------------------------------------------

     CUMULATIVE VOLUMES      L**3       RATES FOR THIS TIME STEP      L**3/T
     ------------------                 ------------------------

           IN:                                      IN:
           ---                                      ---
           AG WELLS      =   605950784.0000             AG WELLS      =           0.0000
      DIVERSION SEGMENTS =   601916864.0000        DIVERSION SEGMENTS =           0.0000
           GW IRRIGATION =           0.0000             GW IRRIGATION =           0.0000
           SW IRRIGATION =           0.0000             SW IRRIGATION =           0.0000
        SYSTEM LOSSES GW =           0.0000          SYSTEM LOSSES GW =           0.0000
        SYSTEM LOSSES SW =           0.0000          SYSTEM LOSSES SW =           0.0000

                TOTAL IN =  1207867648.0000                  TOTAL IN =           0.0000

          OUT:                                     OUT:
          ----                                     ----
           AG WELLS      =           0.0000             AG WELLS      =           0.0000
      DIVERSION SEGMENTS =           0.0000        DIVERSION SEGMENTS =           0.0000
           GW IRRIGATION =   605950784.0000             GW IRRIGATION =           0.0000
           SW IRRIGATION =   601926656.0000             SW IRRIGATION =           0.0000
        SYSTEM LOSSES GW =           0.0000          SYSTEM LOSSES GW =           0.0000
        SYSTEM LOSSES SW =           0.0000          SYSTEM LOSSES SW =           0.0000

               TOTAL OUT =  1207877376.0000                 TOTAL OUT =           0.0000

                IN - OUT =       -9728.0000                  IN - OUT =           0.0000

     PERCENT DISCREPANCY =          -0.00         PERCENT DISCREPANCY =           0.00



1
  VOLUMETRIC BUDGET FOR ENTIRE MODEL AT END OF TIME STEP   30, STRESS PERIOD  41
  ------------------------------------------------------------------------------

     CUMULATIVE VOLUMES      L**3       RATES FOR THIS TIME STEP      L**3/T
     ------------------                 ------------------------

           IN:                                      IN:
           ---                                      ---
             STORAGE     =   909416128.0000               STORAGE     =           1.3974
       CONSTANT HEAD     =           0.0000         CONSTANT HEAD     =           0.0000
     HEAD DEP BOUNDS     =    30364402.0000       HEAD DEP BOUNDS     =           0.2894
      STREAM LEAKAGE     =  1247601792.0000        STREAM LEAKAGE     =          12.5602
        UZF RECHARGE     =       73223.9531          UZF RECHARGE     =           0.0000
               GW ET     =           0.0000                 GW ET     =           0.0000
     SURFACE LEAKAGE     =           0.0000       SURFACE LEAKAGE     =           0.0000
           AG WELLS      =           0.0000             AG WELLS      =           0.0000

                TOTAL IN =  2187455488.0000                  TOTAL IN =          14.2470

          OUT:                                     OUT:
          ----                                     ----
             STORAGE     =   494146432.0000               STORAGE     =           4.1212
       CONSTANT HEAD     =           0.0000         CONSTANT HEAD     =           0.0000
     HEAD DEP BOUNDS     =    30309722.0000       HEAD DEP BOUNDS     =           0.2904
      STREAM LEAKAGE     =  1057068096.0000        STREAM LEAKAGE     =           9.8362
        UZF RECHARGE     =           0.0000          UZF RECHARGE     =           0.0000
               GW ET     =           0.0000                 GW ET     =           0.0000
     SURFACE LEAKAGE     =           0.0000       SURFACE LEAKAGE     =           0.0000
           AG WELLS      =   605950784.0000             AG WELLS      =           0.0000

               TOTAL OUT =  2187474944.0000                 TOTAL OUT =          14.2477

                IN - OUT =      -19456.0000                  IN - OUT =      -7.7629E-04

     PERCENT DISCREPANCY =          -0.00         PERCENT DISCREPANCY =          -0.01






         TIME SUMMARY AT END OF TIME STEP   30 IN STRESS PERIOD   41
                    SECONDS     MINUTES      HOURS       DAYS        YEARS
                    -----------------------------------------------------------
   TIME STEP LENGTH  87667.      1461.1      24.352      1.0147     2.77799E-03
 STRESS PERIOD TIME 2.63000E+06  43833.      730.56      30.440     8.33397E-02
         TOTAL TIME 1.05286E+08 1.75476E+06  29246.      1218.6      3.3363    
1
1
                            STRESS PERIOD NO.   42, LENGTH =   2630000.    
                            -----------------------------------------------

                              NUMBER OF TIME STEPS =    30

                               MULTIPLIER FOR DELT =     1.000

                            INITIAL TIME STEP SIZE =   87666.66    

 REUSING NON-PARAMETER GHB CELLS FROM LAST STRESS PERIOD

      2 GHB CELLS

 REUSING STREAM SEGMENT DATA FROM LAST STRESS PERIOD



            AREAL INFILTRATION RATE
 READING ON UNIT   19 WITH FORMAT: (FREE)              

            1           2           3           4           5           6           7           8           9          10
 ........................................................................................................................
   1   1.0000E-10  2.0000E-10   0.000       0.000       0.000       0.000       0.000       0.000       0.000       0.000    
   2   2.0000E-10  1.0000E-10  2.0000E-10   0.000       0.000      8.0000E-10  8.0000E-10  5.0000E-10   0.000       0.000    
   3    0.000      5.0000E-10  1.0000E-10  1.0000E-10  8.0000E-10  8.0000E-10  5.0000E-10  5.0000E-10   0.000       0.000    
   4   8.0000E-10  5.0000E-10  1.0000E-10  1.0000E-10  1.0000E-10  1.0000E-10  1.0000E-10  1.0000E-10  2.0000E-10   0.000    
   5   8.0000E-10  5.0000E-10  1.0000E-10  1.0000E-10  1.0000E-10  1.0000E-10  1.0000E-10  1.0000E-10  1.0000E-10  1.0000E-10
   6   8.0000E-10  5.0000E-10  5.0000E-10  2.0000E-10  2.0000E-10  1.0000E-10  1.0000E-10  1.0000E-10  1.0000E-10  5.0000E-10
   7   8.0000E-10  5.0000E-10  5.0000E-10  2.0000E-10  2.0000E-10  1.0000E-10  1.0000E-10  2.0000E-10  2.0000E-10   0.000    
   8    0.000      5.0000E-10  5.0000E-10  2.0000E-10  2.0000E-10  1.0000E-10  1.0000E-10  2.0000E-10  5.0000E-10   0.000    
   9    0.000      5.0000E-10  5.0000E-10  2.0000E-10  2.0000E-10  1.0000E-10  1.0000E-10  2.0000E-10  5.0000E-10   0.000    
  10    0.000      5.0000E-10  5.0000E-10  2.0000E-10  2.0000E-10  1.0000E-10  1.0000E-10  2.0000E-10  5.0000E-10  8.0000E-10
  11    0.000      1.0000E-10  1.0000E-10  1.0000E-10  1.0000E-10  1.0000E-10  1.0000E-10  2.0000E-10  5.0000E-10   0.000    
  12   1.0000E-10  1.0000E-10  1.0000E-10  1.0000E-10  1.0000E-10  1.0000E-10  1.0000E-10  1.0000E-10  2.0000E-10   0.000    
  13   1.0000E-10  1.0000E-10  2.0000E-10  2.0000E-10  2.0000E-10  2.0000E-10  2.0000E-10  1.0000E-10  1.0000E-10   0.000    
  14    0.000      2.0000E-10  5.0000E-10  5.0000E-10  5.0000E-10  5.0000E-10  5.0000E-10  2.0000E-10  1.0000E-10   0.000    
  15    0.000       0.000      8.0000E-10  8.0000E-10  8.0000E-10  8.0000E-10   0.000       0.000       0.000       0.000    

                  ET RATE =  5.000000E-08

 USING ET EXTINCTION DEPTH FROM PREVIOUS STRESS PERIOD. CURRENT PERIOD IS:      42

 USING EXTINCTION WATER CONTENT FROM PREVIOUS STRESS PERIOD. CURRENT PERIOD IS:      42

 USING AIR ENTRY PRESSURE FROM PREVIOUS STRESS PERIOD. CURRENT PERIOD IS:      42

 USING ROOT PRESSURE HEAD FROM PREVIOUS STRESS PERIOD. CURRENT PERIOD IS:      42

 USING ROOT ACTIVITY FROM PREVIOUS STRESS PERIOD. CURRENT PERIOD IS:      42

 PROCESSING AG STRESS PERIOD DATA

 READING AG STRESS PERIOD DATA

 READING IRRIGATION SEGMENT

 READING IRRIGATION WELL

 READING SUPPLEMENTAL WELL

 END PROCESSING AG STRESS PERIOD DATA OPTIONS
 
 SOLVING FOR HEAD 
                                                   Max.-Head-Change                         Max.-Flux-Residual
  Residual-Control   Outer-Iter.   Inner-Iter.     Column Row Layer    Maximum-Head-Change  Column Row Layer    Maximum-Flux-Residual          L2-NORM 
          0                 1           2             4    7     1       0.4795093138E-02       4   13    1        -0.2602429445E+00      0.8969598885E+00
          0                 2           2             4    7     1      -0.2364926385E-01       4    7    1        -0.1270047651E+01      0.3113997581E+01
          0                 3           2             4    7     1       0.2416278306E-01       4    7    1         0.1333902812E+01      0.3266954118E+01
          0                 4           2             4    7     1      -0.9614694209E-03       4    7    1        -0.5455729313E-01      0.1336266702E+00
          0                 5           1             4    7     1       0.1185531911E-04       4    7    1         0.6914081298E-03      0.1694497470E-02

    ------------------------------------------------
       NWT REQUIRED            5 OUTER ITERATIONS 
       AND A TOTAL OF          9 INNER ITERATIONS.
    ------------------------------------------------

 NO OUTPUT CONTROL FOR STRESS PERIOD   42   TIME STEP    1
 
 SOLVING FOR HEAD 
                                                   Max.-Head-Change                         Max.-Flux-Residual
  Residual-Control   Outer-Iter.   Inner-Iter.     Column Row Layer    Maximum-Head-Change  Column Row Layer    Maximum-Flux-Residual          L2-NORM 
          0                 1           2             4    7     1       0.4769652593E-02       4    7    1         0.2491435550E+00      0.7796992297E+00
          0                 2           2             4    7     1      -0.4639581405E-03       4    7    1        -0.2491441384E-01      0.7793340419E-01
          0                 3           1             4    7     1       0.3159449534E-04       4    7    1         0.1744046409E-02      0.5452010125E-02

    ------------------------------------------------
       NWT REQUIRED            3 OUTER ITERATIONS 
       AND A TOTAL OF          5 INNER ITERATIONS.
    ------------------------------------------------

 NO OUTPUT CONTROL FOR STRESS PERIOD   42   TIME STEP    2
 
 SOLVING FOR HEAD 
                                                   Max.-Head-Change                         Max.-Flux-Residual
  Residual-Control   Outer-Iter.   Inner-Iter.     Column Row Layer    Maximum-Head-Change  Column Row Layer    Maximum-Flux-Residual          L2-NORM 
          0                 1           2             4    7     1       0.4744467093E-02       4    7    1         0.2478238873E+00      0.7761925262E+00
          0                 2           2             4    7     1      -0.2364433332E-01       4    7    1        -0.1269782415E+01      0.3116809512E+01
          0                 3           2             4    7     1       0.2416244149E-01       4    7    1         0.1333884246E+01      0.3266945539E+01
          0                 4           2             4    7     1      -0.9614558289E-03       4    7    1        -0.5455653374E-01      0.1336285091E+00
          0                 5           1             4    7     1       0.1185515142E-04       4    7    1         0.6913984992E-03      0.1694864271E-02

    ------------------------------------------------
       NWT REQUIRED            5 OUTER ITERATIONS 
       AND A TOTAL OF          9 INNER ITERATIONS.
    ------------------------------------------------

 NO OUTPUT CONTROL FOR STRESS PERIOD   42   TIME STEP    3
 
 SOLVING FOR HEAD 
                                                   Max.-Head-Change                         Max.-Flux-Residual
  Residual-Control   Outer-Iter.   Inner-Iter.     Column Row Layer    Maximum-Head-Change  Column Row Layer    Maximum-Flux-Residual          L2-NORM 
          0                 1           2             4    7     1       0.4719548028E-02       4    7    1         0.2465186417E+00      0.7707865448E+00
          0                 2           2             4    7     1      -0.4590843248E-03       4    7    1        -0.2465192199E-01      0.7706364583E-01
          0                 3           2             4    7     1      -0.2315089847E-01       5    6    1        -0.1243633237E+01      0.3060332550E+01
          0                 4           2             4    7     1       0.2412926888E-01       5    6    1         0.1332066417E+01      0.3262875813E+01
          0                 5           2             4    7     1      -0.9603635141E-03       5    8    1        -0.5449563805E-01      0.1334844943E+00
          0                 6           1             4    7     1       0.1185047435E-04       5    8    1         0.6911385001E-03      0.1692914123E-02

    ------------------------------------------------
       NWT REQUIRED            6 OUTER ITERATIONS 
       AND A TOTAL OF         11 INNER ITERATIONS.
    ------------------------------------------------

 NO OUTPUT CONTROL FOR STRESS PERIOD   42   TIME STEP    4
 
 SOLVING FOR HEAD 
                                                   Max.-Head-Change                         Max.-Flux-Residual
  Residual-Control   Outer-Iter.   Inner-Iter.     Column Row Layer    Maximum-Head-Change  Column Row Layer    Maximum-Flux-Residual          L2-NORM 
          0                 1           2             4    7     1       0.4694750221E-02       4    7    1         0.2452192689E+00      0.7666388284E+00
          0                 2           2             4    7     1      -0.4566721700E-03       4    7    1        -0.2452198441E-01      0.7665872589E-01
          0                 3           2             4    7     1      -0.2315105993E-01       5    6    1        -0.1243639902E+01      0.3060363879E+01
          0                 4           2             4    7     1       0.2412927269E-01       5    6    1         0.1332066645E+01      0.3262876527E+01
          0                 5           2             4    7     1      -0.9603636659E-03       5    8    1        -0.5449564841E-01      0.1334845217E+00
          0                 6           1             4    7     1       0.1185047626E-04       5    8    1         0.6911386199E-03      0.1692921229E-02

    ------------------------------------------------
       NWT REQUIRED            6 OUTER ITERATIONS 
       AND A TOTAL OF         11 INNER ITERATIONS.
    ------------------------------------------------

 NO OUTPUT CONTROL FOR STRESS PERIOD   42   TIME STEP    5
 
 SOLVING FOR HEAD 
                                                   Max.-Head-Change                         Max.-Flux-Residual
  Residual-Control   Outer-Iter.   Inner-Iter.     Column Row Layer    Maximum-Head-Change  Column Row Layer    Maximum-Flux-Residual          L2-NORM 
          0                 1           2             4    7     1       0.4670210781E-02       4    7    1         0.2439335254E+00      0.7635018796E+00
          0                 2           2             4    7     1      -0.4542851478E-03       4    7    1        -0.2439340981E-01      0.7634956636E-01
          0                 3           2             4    7     1      -0.2315121966E-01       5    6    1        -0.1243646394E+01      0.3060394043E+01
          0                 4           2             4    7     1       0.2412927640E-01       5    6    1         0.1332066861E+01      0.3262892374E+01
          0                 5           2             4    7     1      -0.9603638136E-03       5    8    1        -0.5449565847E-01      0.1334854204E+00
          0                 6           1             4    7     1       0.1185047782E-04       5    8    1         0.6911387488E-03      0.1692925179E-02

    ------------------------------------------------
       NWT REQUIRED            6 OUTER ITERATIONS 
       AND A TOTAL OF         11 INNER ITERATIONS.
    ------------------------------------------------

 NO OUTPUT CONTROL FOR STRESS PERIOD   42   TIME STEP    6
 
 SOLVING FOR HEAD 
                                                   Max.-Head-Change                         Max.-Flux-Residual
  Residual-Control   Outer-Iter.   Inner-Iter.     Column Row Layer    Maximum-Head-Change  Column Row Layer    Maximum-Flux-Residual          L2-NORM 
          0                 1           2             4    7     1       0.4645920553E-02       4    7    1         0.2426611780E+00      0.7611516792E+00
          0                 2           2             4    7     1      -0.4519223673E-03       4    7    1        -0.2426617484E-01      0.7611475964E-01
          0                 3           2             4    7     1      -0.2315137772E-01       5    6    1        -0.1243652835E+01      0.3060423418E+01
          0                 4           2             4    7     1       0.2412928003E-01       5    6    1         0.1332067074E+01      0.3262914729E+01
          0                 5           2             4    7     1      -0.9603639578E-03       5    8    1        -0.5449566839E-01      0.1334865123E+00
          0                 6           1             4    7     1       0.1185047962E-04       5    8    1         0.6911388616E-03      0.1692932791E-02

    ------------------------------------------------
       NWT REQUIRED            6 OUTER ITERATIONS 
       AND A TOTAL OF         11 INNER ITERATIONS.
    ------------------------------------------------

 NO OUTPUT CONTROL FOR STRESS PERIOD   42   TIME STEP    7
 
 SOLVING FOR HEAD 
                                                   Max.-Head-Change                         Max.-Flux-Residual
  Residual-Control   Outer-Iter.   Inner-Iter.     Column Row Layer    Maximum-Head-Change  Column Row Layer    Maximum-Flux-Residual          L2-NORM 
          0                 1           2             4    7     1       0.4621749329E-02       4    7    1         0.2413944096E+00      0.7594296198E+00
          0                 2           2             4    7     1      -0.4495706094E-03       4    7    1        -0.2413946803E-01      0.7593874795E-01
          0                 3           2             4    7     1      -0.2315153779E-01       5    6    1        -0.1243659321E+01      0.3060452026E+01
          0                 4           2             4    7     1       0.2412928596E-01       5    6    1         0.1332067409E+01      0.3262915756E+01
          0                 5           2             4    7     1      -0.9603641943E-03       5    8    1        -0.5449568349E-01      0.1334865632E+00
          0                 6           1             4    7     1       0.1185048275E-04       5    8    1         0.6911390578E-03      0.1692932788E-02

    ------------------------------------------------
       NWT REQUIRED            6 OUTER ITERATIONS 
       AND A TOTAL OF         11 INNER ITERATIONS.
    ------------------------------------------------

 NO OUTPUT CONTROL FOR STRESS PERIOD   42   TIME STEP    8
 
 SOLVING FOR HEAD 
                                                   Max.-Head-Change                         Max.-Flux-Residual
  Residual-Control   Outer-Iter.   Inner-Iter.     Column Row Layer    Maximum-Head-Change  Column Row Layer    Maximum-Flux-Residual          L2-NORM 
          0                 1           2             4    7     1       0.4597828464E-02       4    7    1         0.2401411538E+00      0.7581811832E+00
          0                 2           2             4    7     1      -0.4472443106E-03       4    7    1        -0.2401417191E-01      0.7580865846E-01
          0                 3           2             4    7     1      -0.2315169277E-01       5    6    1        -0.1243665576E+01      0.3060479296E+01
          0                 4           2             4    7     1       0.2412928941E-01       5    6    1         0.1332067608E+01      0.3262916450E+01
          0                 5           2             4    7     1      -0.9603643314E-03       5    8    1        -0.5449569275E-01      0.1334865860E+00
          0                 6           1             4    7     1       0.1185048432E-04       5    8    1         0.6911391931E-03      0.1692930934E-02

    ------------------------------------------------
       NWT REQUIRED            6 OUTER ITERATIONS 
       AND A TOTAL OF         11 INNER ITERATIONS.
    ------------------------------------------------

 NO OUTPUT CONTROL FOR STRESS PERIOD   42   TIME STEP    9
 
 SOLVING FOR HEAD 
                                                   Max.-Head-Change                         Max.-Flux-Residual
  Residual-Control   Outer-Iter.   Inner-Iter.     Column Row Layer    Maximum-Head-Change  Column Row Layer    Maximum-Flux-Residual          L2-NORM 
          0                 1           2             4    7     1       0.4574018946E-02       4    7    1         0.2388935363E+00      0.7573035818E+00
          0                 2           2             4    7     1      -0.4449282906E-03       4    7    1        -0.2388940992E-01      0.7571315442E-01
          0                 3           2             4    7     1      -0.2315184982E-01       5    6    1        -0.1243671820E+01      0.3060505820E+01
          0                 4           2             4    7     1       0.2412929517E-01       5    6    1         0.1332067926E+01      0.3262917504E+01
          0                 5           2             4    7     1      -0.9603645606E-03       5    8    1        -0.5449570718E-01      0.1334866353E+00
          0                 6           1             4    7     1       0.1185048712E-04       5    8    1         0.6911393798E-03      0.1692934366E-02

    ------------------------------------------------
       NWT REQUIRED            6 OUTER ITERATIONS 
       AND A TOTAL OF         11 INNER ITERATIONS.
    ------------------------------------------------

 NO OUTPUT CONTROL FOR STRESS PERIOD   42   TIME STEP   10
 
 SOLVING FOR HEAD 
                                                   Max.-Head-Change                         Max.-Flux-Residual
  Residual-Control   Outer-Iter.   Inner-Iter.     Column Row Layer    Maximum-Head-Change  Column Row Layer    Maximum-Flux-Residual          L2-NORM 
          0                 1           2             4    7     1       0.4550461606E-02       4    7    1         0.2376590346E+00      0.7566910424E+00
          0                 2           2             4    7     1      -0.4426367999E-03       4    7    1        -0.2376595950E-01      0.7564256992E-01
          0                 3           2             4    7     1      -0.2315200295E-01       5    6    1        -0.1243677906E+01      0.3060531444E+01
          0                 4           2             4    7     1       0.2412929852E-01       5    6    1         0.1332068114E+01      0.3262918158E+01
          0                 5           2             4    7     1      -0.9603646939E-03       5    8    1        -0.5449571610E-01      0.1334866582E+00
          0                 6           1             4    7     1       0.1185048858E-04       5    8    1         0.6911394746E-03      0.1692938493E-02

    ------------------------------------------------
       NWT REQUIRED            6 OUTER ITERATIONS 
       AND A TOTAL OF         11 INNER ITERATIONS.
    ------------------------------------------------

 NO OUTPUT CONTROL FOR STRESS PERIOD   42   TIME STEP   11
 
 SOLVING FOR HEAD 
                                                   Max.-Head-Change                         Max.-Flux-Residual
  Residual-Control   Outer-Iter.   Inner-Iter.     Column Row Layer    Maximum-Head-Change  Column Row Layer    Maximum-Flux-Residual          L2-NORM 
          0                 1           2             4    7     1       0.4527149633E-02       4    7    1         0.2364376082E+00      0.7562642691E+00
          0                 2           2             4    7     1      -0.4403691771E-03       4    7    1        -0.2364381662E-01      0.7558949999E-01
          0                 3           2             4    7     1      -0.2315215444E-01       5    6    1        -0.1243683949E+01      0.3060556168E+01
          0                 4           2             4    7     1       0.2412930179E-01       5    6    1         0.1332068299E+01      0.3262919585E+01
          0                 5           2             4    7     1      -0.9603648241E-03       5    8    1        -0.5449572475E-01      0.1334867320E+00
          0                 6           1             4    7     1       0.1185049037E-04       5    8    1         0.6911395915E-03      0.1692935242E-02

    ------------------------------------------------
       NWT REQUIRED            6 OUTER ITERATIONS 
       AND A TOTAL OF         11 INNER ITERATIONS.
    ------------------------------------------------

 NO OUTPUT CONTROL FOR STRESS PERIOD   42   TIME STEP   12
 
 SOLVING FOR HEAD 
                                                   Max.-Head-Change                         Max.-Flux-Residual
  Residual-Control   Outer-Iter.   Inner-Iter.     Column Row Layer    Maximum-Head-Change  Column Row Layer    Maximum-Flux-Residual          L2-NORM 
          0                 1           2             4    7     1       0.4504076958E-02       4    7    1         0.2352289038E+00      0.7559815945E+00
          0                 2           2             4    7     1      -0.4381248311E-03       4    7    1        -0.2352294593E-01      0.7555007179E-01
          0                 3           2             4    7     1      -0.2315230653E-01       5    6    1        -0.1243689957E+01      0.3060580442E+01
          0                 4           2             4    7     1       0.2412930727E-01       5    6    1         0.1332068600E+01      0.3262920514E+01
          0                 5           2             4    7     1      -0.9603650422E-03       5    8    1        -0.5449573847E-01      0.1334867671E+00
          0                 6           1             4    7     1       0.1185049306E-04       5    8    1         0.6911397713E-03      0.1692932910E-02

    ------------------------------------------------
       NWT REQUIRED            6 OUTER ITERATIONS 
       AND A TOTAL OF         11 INNER ITERATIONS.
    ------------------------------------------------

 NO OUTPUT CONTROL FOR STRESS PERIOD   42   TIME STEP   13
 
 SOLVING FOR HEAD 
                                                   Max.-Head-Change                         Max.-Flux-Residual
  Residual-Control   Outer-Iter.   Inner-Iter.     Column Row Layer    Maximum-Head-Change  Column Row Layer    Maximum-Flux-Residual          L2-NORM 
          0                 1           2             4    7     1       0.4481107682E-02       4    7    1         0.2340252639E+00      0.7557787418E+00
          0                 2           2             4    7     1      -0.4358905437E-03       4    7    1        -0.2340258173E-01      0.7551804969E-01
          0                 3           2             4    7     1      -0.2315245572E-01       5    6    1        -0.1243695811E+01      0.3060603974E+01
          0                 4           2             4    7     1       0.2412931041E-01       5    6    1         0.1332068771E+01      0.3262924432E+01
          0                 5           2             4    7     1      -0.9603651673E-03       5    8    1        -0.5449574672E-01      0.1334869352E+00
          0                 6           1             4    7     1       0.1185049496E-04       5    8    1         0.6911398787E-03      0.1692933081E-02

    ------------------------------------------------
       NWT REQUIRED            6 OUTER ITERATIONS 
       AND A TOTAL OF         11 INNER ITERATIONS.
    ------------------------------------------------

 NO OUTPUT CONTROL FOR STRESS PERIOD   42   TIME STEP   14
 
 SOLVING FOR HEAD 
                                                   Max.-Head-Change                         Max.-Flux-Residual
  Residual-Control   Outer-Iter.   Inner-Iter.     Column Row Layer    Maximum-Head-Change  Column Row Layer    Maximum-Flux-Residual          L2-NORM 
          0                 1           2             4    7     1       0.4458380666E-02       4    7    1         0.2328343280E+00      0.7556282183E+00
          0                 2           2             4    7     1      -0.4336795450E-03       4    7    1        -0.2328347307E-01      0.7549141322E-01
          0                 3           2             4    7     1      -0.2315260579E-01       5    6    1        -0.1243701709E+01      0.3060626954E+01
          0                 4           2             4    7     1       0.2412931579E-01       5    6    1         0.1332069065E+01      0.3262925344E+01
          0                 5           2             4    7     1      -0.9603653815E-03       5    8    1        -0.5449575994E-01      0.1334869683E+00
          0                 6           1             4    7     1       0.1185049720E-04       5    8    1         0.6911400396E-03      0.1692934470E-02

    ------------------------------------------------
       NWT REQUIRED            6 OUTER ITERATIONS 
       AND A TOTAL OF         11 INNER ITERATIONS.
    ------------------------------------------------

 NO OUTPUT CONTROL FOR STRESS PERIOD   42   TIME STEP   15
 
 SOLVING FOR HEAD 
                                                   Max.-Head-Change                         Max.-Flux-Residual
  Residual-Control   Outer-Iter.   Inner-Iter.     Column Row Layer    Maximum-Head-Change  Column Row Layer    Maximum-Flux-Residual          L2-NORM 
          0                 1           2             4    7     1       0.4435756043E-02       4    7    1         0.2316486100E+00      0.7554917986E+00
          0                 2           2             4    7     1      -0.4314790593E-03       4    7    1        -0.2316491589E-01      0.7546588573E-01
          0                 3           2             4    7     1      -0.2315275236E-01       5    6    1        -0.1243707365E+01      0.3060648925E+01
          0                 4           2             4    7     1       0.2412931878E-01       5    6    1         0.1332069223E+01      0.3262925920E+01
          0                 5           2             4    7     1      -0.9603654999E-03       5    8    1        -0.5449576761E-01      0.1334869896E+00
          0                 6           1             4    7     1       0.1185049877E-04       5    8    1         0.6911401304E-03      0.1692934413E-02

    ------------------------------------------------
       NWT REQUIRED            6 OUTER ITERATIONS 
       AND A TOTAL OF         11 INNER ITERATIONS.
    ------------------------------------------------

 NO OUTPUT CONTROL FOR STRESS PERIOD   42   TIME STEP   16
 
 SOLVING FOR HEAD 
                                                   Max.-Head-Change                         Max.-Flux-Residual
  Residual-Control   Outer-Iter.   Inner-Iter.     Column Row Layer    Maximum-Head-Change  Column Row Layer    Maximum-Flux-Residual          L2-NORM 
          0                 1           2             4    7     1       0.4413368891E-02       4    7    1         0.2304755440E+00      0.7553502186E+00
          0                 2           2             4    7     1      -0.4293013963E-03       4    7    1        -0.2304760906E-01      0.7544019043E-01
          0                 3           2             4    7     1      -0.2315289763E-01       5    6    1        -0.1243712951E+01      0.3060670413E+01
          0                 4           2             4    7     1       0.2412932170E-01       5    6    1         0.1332069375E+01      0.3262926491E+01
          0                 5           2             4    7     1      -0.9603656166E-03       5    8    1        -0.5449577520E-01      0.1334870150E+00
          0                 6           1             4    7     1       0.1185050045E-04       5    8    1         0.6911402368E-03      0.1692937898E-02

    ------------------------------------------------
       NWT REQUIRED            6 OUTER ITERATIONS 
       AND A TOTAL OF         11 INNER ITERATIONS.
    ------------------------------------------------

 NO OUTPUT CONTROL FOR STRESS PERIOD   42   TIME STEP   17
 
 SOLVING FOR HEAD 
                                                   Max.-Head-Change                         Max.-Flux-Residual
  Residual-Control   Outer-Iter.   Inner-Iter.     Column Row Layer    Maximum-Head-Change  Column Row Layer    Maximum-Flux-Residual          L2-NORM 
          0                 1           2             4    7     1       0.4391216745E-02       4    7    1         0.2293147906E+00      0.7551836443E+00
          0                 2           2             4    7     1      -0.4271465934E-03       4    7    1        -0.2293153349E-01      0.7541173776E-01
          0                 3           2             4    7     1      -0.2315304354E-01       5    6    1        -0.1243718631E+01      0.3060691714E+01
          0                 4           2             4    7     1       0.2412932685E-01       5    6    1         0.1332069654E+01      0.3262927356E+01
          0                 5           2             4    7     1      -0.9603658216E-03       5    8    1        -0.5449578774E-01      0.1334870500E+00
          0                 6           1             4    7     1       0.1185050258E-04       5    8    1         0.6911404009E-03      0.1692936783E-02

    ------------------------------------------------
       NWT REQUIRED            6 OUTER ITERATIONS 
       AND A TOTAL OF         11 INNER ITERATIONS.
    ------------------------------------------------

 NO OUTPUT CONTROL FOR STRESS PERIOD   42   TIME STEP   18
 
 SOLVING FOR HEAD 
                                                   Max.-Head-Change                         Max.-Flux-Residual
  Residual-Control   Outer-Iter.   Inner-Iter.     Column Row Layer    Maximum-Head-Change  Column Row Layer    Maximum-Flux-Residual          L2-NORM 
          0                 1           2             4    7     1       0.4369158404E-02       4    7    1         0.2281588789E+00      0.7549806224E+00
          0                 2           2             4    7     1      -0.4250009149E-03       4    7    1        -0.2281594211E-01      0.7538011402E-01
          0                 3           2             4    7     1      -0.2315318883E-01       5    6    1        -0.1243724227E+01      0.3060712526E+01
          0                 4           2             4    7     1       0.2412933196E-01       5    6    1         0.1332069926E+01      0.3262928232E+01
          0                 5           2             4    7     1      -0.9603660250E-03       5    8    1        -0.5449580005E-01      0.1334870927E+00
          0                 6           1             4    7     1       0.1185050527E-04       5    8    1         0.6911405521E-03      0.1692936141E-02

    ------------------------------------------------
       NWT REQUIRED            6 OUTER ITERATIONS 
       AND A TOTAL OF         11 INNER ITERATIONS.
    ------------------------------------------------

 NO OUTPUT CONTROL FOR STRESS PERIOD   42   TIME STEP   19
 
 SOLVING FOR HEAD 
                                                   Max.-Head-Change                         Max.-Flux-Residual
  Residual-Control   Outer-Iter.   Inner-Iter.     Column Row Layer    Maximum-Head-Change  Column Row Layer    Maximum-Flux-Residual          L2-NORM 
          0                 1           2             4    7     1       0.4347336095E-02       4    7    1         0.2270151741E+00      0.7547402509E+00
          0                 2           2             4    7     1      -0.4228781966E-03       4    7    1        -0.2270157143E-01      0.7534517125E-01
          0                 3           2             4    7     1      -0.2315333031E-01       5    6    1        -0.1243729623E+01      0.3060732562E+01
          0                 4           2             4    7     1       0.2412933468E-01       5    6    1         0.1332070066E+01      0.3262928763E+01
          0                 5           2             4    7     1      -0.9603661334E-03       5    8    1        -0.5449580689E-01      0.1334871102E+00
          0                 6           1             4    7     1       0.1185050672E-04       5    8    1         0.6911406338E-03      0.1692937072E-02

    ------------------------------------------------
       NWT REQUIRED            6 OUTER ITERATIONS 
       AND A TOTAL OF         11 INNER ITERATIONS.
    ------------------------------------------------

 NO OUTPUT CONTROL FOR STRESS PERIOD   42   TIME STEP   20
 
 SOLVING FOR HEAD 
                                                   Max.-Head-Change                         Max.-Flux-Residual
  Residual-Control   Outer-Iter.   Inner-Iter.     Column Row Layer    Maximum-Head-Change  Column Row Layer    Maximum-Flux-Residual          L2-NORM 
          0                 1           2             4    7     1       0.4325742045E-02       4    7    1         0.2258837073E+00      0.7544449997E+00
          0                 2           2             4    7     1      -0.4207776810E-03       4    7    1        -0.2258842453E-01      0.7530471193E-01
          0                 3           2             4    7     1      -0.2315347025E-01       5    6    1        -0.1243734940E+01      0.3060752073E+01
          0                 4           2             4    7     1       0.2412927540E-01       5    6    1         0.1332066782E+01      0.3262920898E+01
          0                 5           2             4    7     1      -0.9603035498E-03       5    8    1        -0.5449225650E-01      0.1334784137E+00
          0                 6           1             4    7     1       0.1184973449E-04       5    8    1         0.6910956058E-03      0.1692828308E-02

    ------------------------------------------------
       NWT REQUIRED            6 OUTER ITERATIONS 
       AND A TOTAL OF         11 INNER ITERATIONS.
    ------------------------------------------------

 NO OUTPUT CONTROL FOR STRESS PERIOD   42   TIME STEP   21
 
 SOLVING FOR HEAD 
                                                   Max.-Head-Change                         Max.-Flux-Residual
  Residual-Control   Outer-Iter.   Inner-Iter.     Column Row Layer    Maximum-Head-Change  Column Row Layer    Maximum-Flux-Residual          L2-NORM 
          0                 1           2             4    7     1       0.4304238454E-02       4    7    1         0.2247567321E+00      0.7540971803E+00
          0                 2           2             4    7     1      -0.4186856882E-03       4    7    1        -0.2247571194E-01      0.7525993450E-01
          0                 3           2             4    7     1      -0.2315361210E-01       5    6    1        -0.1243740373E+01      0.3060771442E+01
          0                 4           2             4    7     1       0.2412934224E-01       5    6    1         0.1332070461E+01      0.3262930096E+01
          0                 5           2             4    7     1      -0.9603664340E-03       5    8    1        -0.5449582540E-01      0.1334871609E+00
          0                 6           1             4    7     1       0.1185051042E-04       5    8    1         0.6911408675E-03      0.1692935758E-02

    ------------------------------------------------
       NWT REQUIRED            6 OUTER ITERATIONS 
       AND A TOTAL OF         11 INNER ITERATIONS.
    ------------------------------------------------

 NO OUTPUT CONTROL FOR STRESS PERIOD   42   TIME STEP   22
 
 SOLVING FOR HEAD 
                                                   Max.-Head-Change                         Max.-Flux-Residual
  Residual-Control   Outer-Iter.   Inner-Iter.     Column Row Layer    Maximum-Head-Change  Column Row Layer    Maximum-Flux-Residual          L2-NORM 
          0                 1           2             4    7     1       0.4282963638E-02       4    7    1         0.2236417905E+00      0.7536902858E+00
          0                 2           2             4    7     1      -0.4166158159E-03       4    7    1        -0.2236419557E-01      0.7520932144E-01
          0                 3           2             4    7     1      -0.2315375034E-01       5    6    1        -0.1243745616E+01      0.3060790225E+01
          0                 4           2             4    7     1       0.2412927424E-01       5    6    1         0.1332066695E+01      0.3262921064E+01
          0                 5           2             4    7     1      -0.9602950997E-03       5    8    1        -0.5449177825E-01      0.1334772707E+00
          0                 6           1             4    7     1       0.1184962986E-04       5    8    1         0.6910895427E-03      0.1692821749E-02

    ------------------------------------------------
       NWT REQUIRED            6 OUTER ITERATIONS 
       AND A TOTAL OF         11 INNER ITERATIONS.
    ------------------------------------------------

 NO OUTPUT CONTROL FOR STRESS PERIOD   42   TIME STEP   23
 
 SOLVING FOR HEAD 
                                                   Max.-Head-Change                         Max.-Flux-Residual
  Residual-Control   Outer-Iter.   Inner-Iter.     Column Row Layer    Maximum-Head-Change  Column Row Layer    Maximum-Flux-Residual          L2-NORM 
          0                 1           2             4    7     1       0.4261912461E-02       4    7    1         0.2225387107E+00      0.7532264148E+00
          0                 2           2             4    7     1      -0.4145681075E-03       4    7    1        -0.2225388739E-01      0.7515318538E-01
          0                 3           2             4    7     1      -0.2315388664E-01       5    6    1        -0.1243750761E+01      0.3060808675E+01
          0                 4           2             4    7     1       0.2412927235E-01       5    6    1         0.1332066578E+01      0.3262920970E+01
          0                 5           2             4    7     1      -0.9602908232E-03       5    8    1        -0.5449153612E-01      0.1334766710E+00
          0                 6           1             4    7     1       0.1184957722E-04       5    8    1         0.6910864736E-03      0.1692805271E-02

    ------------------------------------------------
       NWT REQUIRED            6 OUTER ITERATIONS 
       AND A TOTAL OF         11 INNER ITERATIONS.
    ------------------------------------------------

 NO OUTPUT CONTROL FOR STRESS PERIOD   42   TIME STEP   24
 
 SOLVING FOR HEAD 
                                                   Max.-Head-Change                         Max.-Flux-Residual
  Residual-Control   Outer-Iter.   Inner-Iter.     Column Row Layer    Maximum-Head-Change  Column Row Layer    Maximum-Flux-Residual          L2-NORM 
          0                 1           2             4    7     1       0.4241081508E-02       4    7    1         0.2214472265E+00      0.7527052766E+00
          0                 2           2             4    7     1      -0.4125425078E-03       4    7    1        -0.2214477566E-01      0.7509267981E-01
          0                 3           2             4    7     1      -0.2315402293E-01       5    6    1        -0.1243755913E+01      0.3060826687E+01
          0                 4           2             4    7     1       0.2412927695E-01       5    6    1         0.1332066820E+01      0.3262921742E+01
          0                 5           2             4    7     1      -0.9602910060E-03       5    8    1        -0.5449154719E-01      0.1334767041E+00
          0                 6           1             4    7     1       0.1184957946E-04       5    8    1         0.6910866159E-03      0.1692807927E-02

    ------------------------------------------------
       NWT REQUIRED            6 OUTER ITERATIONS 
       AND A TOTAL OF         11 INNER ITERATIONS.
    ------------------------------------------------

 NO OUTPUT CONTROL FOR STRESS PERIOD   42   TIME STEP   25
 
 SOLVING FOR HEAD 
                                                   Max.-Head-Change                         Max.-Flux-Residual
  Residual-Control   Outer-Iter.   Inner-Iter.     Column Row Layer    Maximum-Head-Change  Column Row Layer    Maximum-Flux-Residual          L2-NORM 
          0                 1           2             4    7     1       0.4220331173E-02       4    7    1         0.2203598168E+00      0.7521237953E+00
          0                 2           2             4    7     1      -0.4105237861E-03       4    7    1        -0.2203601964E-01      0.7502553423E-01
          0                 3           2             4    7     1      -0.2315415751E-01       5    6    1        -0.1243760931E+01      0.3060844484E+01
          0                 4           2             4    7     1       0.2412927497E-01       5    6    1         0.1332066694E+01      0.3262921632E+01
          0                 5           2             4    7     1      -0.9602867256E-03       5    8    1        -0.5449130466E-01      0.1334761112E+00
          0                 6           1             4    7     1       0.1184952658E-04       5    8    1         0.6910835498E-03      0.1692799799E-02

    ------------------------------------------------
       NWT REQUIRED            6 OUTER ITERATIONS 
       AND A TOTAL OF         11 INNER ITERATIONS.
    ------------------------------------------------

 NO OUTPUT CONTROL FOR STRESS PERIOD   42   TIME STEP   26
 
 SOLVING FOR HEAD 
                                                   Max.-Head-Change                         Max.-Flux-Residual
  Residual-Control   Outer-Iter.   Inner-Iter.     Column Row Layer    Maximum-Head-Change  Column Row Layer    Maximum-Flux-Residual          L2-NORM 
          0                 1           2             4    7     1       0.4199799108E-02       4    7    1         0.2192839309E+00      0.7514879312E+00
          0                 2           2             4    7     1      -0.4085265731E-03       4    7    1        -0.2192843084E-01      0.7495401339E-01
          0                 3           2             4    7     1      -0.2315429253E-01       5    6    1        -0.1243766043E+01      0.3060861869E+01
          0                 4           2             4    7     1       0.2412927520E-01       5    6    1         0.1332066695E+01      0.3262921895E+01
          0                 5           2             4    7     1      -0.9602825330E-03       5    8    1        -0.5449106740E-01      0.1334755390E+00
          0                 6           1             4    7     1       0.1184947472E-04       5    8    1         0.6910805298E-03      0.1692790436E-02

    ------------------------------------------------
       NWT REQUIRED            6 OUTER ITERATIONS 
       AND A TOTAL OF         11 INNER ITERATIONS.
    ------------------------------------------------

 NO OUTPUT CONTROL FOR STRESS PERIOD   42   TIME STEP   27
 
 SOLVING FOR HEAD 
                                                   Max.-Head-Change                         Max.-Flux-Residual
  Residual-Control   Outer-Iter.   Inner-Iter.     Column Row Layer    Maximum-Head-Change  Column Row Layer    Maximum-Flux-Residual          L2-NORM 
          0                 1           2             4    7     1       0.4179348496E-02       4    7    1         0.2182120182E+00      0.7507956780E+00
          0                 2           2             4    7     1      -0.4065372836E-03       4    7    1        -0.2182123939E-01      0.7487686838E-01
          0                 3           2             4    7     1      -0.2315442480E-01       5    6    1        -0.1243770966E+01      0.3060878919E+01
          0                 4           2             4    7     1       0.2412927309E-01       5    6    1         0.1332066562E+01      0.3262922089E+01
          0                 5           2             4    7     1      -0.9602782476E-03       5    8    1        -0.5449082456E-01      0.1334749577E+00
          0                 6           1             4    7     1       0.1184942207E-04       5    8    1         0.6910774277E-03      0.1692778212E-02

    ------------------------------------------------
       NWT REQUIRED            6 OUTER ITERATIONS 
       AND A TOTAL OF         11 INNER ITERATIONS.
    ------------------------------------------------

 NO OUTPUT CONTROL FOR STRESS PERIOD   42   TIME STEP   28
 
 SOLVING FOR HEAD 
                                                   Max.-Head-Change                         Max.-Flux-Residual
  Residual-Control   Outer-Iter.   Inner-Iter.     Column Row Layer    Maximum-Head-Change  Column Row Layer    Maximum-Flux-Residual          L2-NORM 
          0                 1           2             4    7     1       0.4159247548E-02       4    7    1         0.2171590165E+00      0.7500583451E+00
          0                 2           2             4    7     1      -0.4045820068E-03       4    7    1        -0.2171593905E-01      0.7479544593E-01
          0                 3           2             4    7     1      -0.2315455471E-01       5    6    1        -0.1243775822E+01      0.3060895650E+01
          0                 4           2             4    7     1       0.2412927085E-01       5    6    1         0.1332066426E+01      0.3262921941E+01
          0                 5           2             4    7     1      -0.9602739564E-03       5    8    1        -0.5449058149E-01      0.1334743819E+00
          0                 6           1             4    7     1       0.1184936887E-04       5    8    1         0.6910743589E-03      0.1692775240E-02

    ------------------------------------------------
       NWT REQUIRED            6 OUTER ITERATIONS 
       AND A TOTAL OF         11 INNER ITERATIONS.
    ------------------------------------------------

 NO OUTPUT CONTROL FOR STRESS PERIOD   42   TIME STEP   29
 
 SOLVING FOR HEAD 
                                                   Max.-Head-Change                         Max.-Flux-Residual
  Residual-Control   Outer-Iter.   Inner-Iter.     Column Row Layer    Maximum-Head-Change  Column Row Layer    Maximum-Flux-Residual          L2-NORM 
          0                 1           2             4    7     1       0.4139085705E-02       4    7    1         0.2161021127E+00      0.7492698437E+00
          0                 2           2             4    7     1      -0.4026210831E-03       4    7    1        -0.2161026333E-01      0.7471007627E-01
          0                 3           2             4    7     1      -0.2315468474E-01       5    6    1        -0.1243780597E+01      0.3060911813E+01
          0                 4           2             4    7     1       0.2412926862E-01       5    6    1         0.1332066283E+01      0.3262921767E+01
          0                 5           2             4    7     1      -0.9602696660E-03       5    8    1        -0.5449033837E-01      0.1334737940E+00
          0                 6           1             4    7     1       0.1184931622E-04       5    8    1         0.6910712775E-03      0.1692776576E-02

    ------------------------------------------------
       NWT REQUIRED            6 OUTER ITERATIONS 
       AND A TOTAL OF         11 INNER ITERATIONS.
    ------------------------------------------------

 NO OUTPUT CONTROL FOR STRESS PERIOD   42   TIME STEP   30



 STREAM LISTING     PERIOD     42   STEP       30

 LAYER ROW COL. STREAM  RCH.  FLOW INTO     FLOW TO   FLOW OUT OF   OVRLND.     DIRECT     STREAM       STREAM     STREAM     STREAM   STREAMBED  STREAMBED
                SEG.NO.  NO.  STRM. RCH.    AQUIFER    STRM. RCH.    RUNOFF     PRECIP       ET          HEAD       DEPTH      WIDTH   CONDCTNC.   GRADIENT

   1    1    1     1     1    2.3624E+01  2.3872E-01   2.3386E+01  0.000E+00  0.000E+00  0.000E+00  1.09421E+03  1.157E+00  1.276E+01  5.742E-02  1.386E+00
   1    2    2     1     2    2.3386E+01  3.6908E-01   2.3016E+01  0.000E+00  0.000E+00  0.000E+00  1.08921E+03  1.153E+00  1.270E+01  8.888E-02  1.384E+00
   1    3    3     1     3    2.3016E+01  3.1417E-01   2.2702E+01  0.000E+00  0.000E+00  0.000E+00  1.08357E+03  1.147E+00  1.263E+01  7.575E-02  1.382E+00
   1    3    4     1     4    2.2702E+01  2.8881E-01   2.2414E+01  0.000E+00  0.000E+00  0.000E+00  1.07855E+03  1.143E+00  1.256E+01  6.972E-02  1.381E+00
   1    4    5     2     1    2.0414E+01  3.1702E-01   2.0096E+01  0.000E+00  0.000E+00  0.000E+00  1.07300E+03  1.064E+00  1.200E+01  7.800E-02  1.355E+00
   1    5    6     2     2    2.0096E+01  2.4333E-01   1.9853E+01  0.000E+00  0.000E+00  0.000E+00  1.06756E+03  1.055E+00  1.200E+01  6.000E-02  1.352E+00
   1    6    6     2     3    1.9853E+01  2.4286E-01   1.9610E+01  0.000E+00  0.000E+00  0.000E+00  1.06284E+03  1.048E+00  1.200E+01  6.000E-02  1.349E+00
   1    7    6     2     4    1.9610E+01  2.4240E-01   1.9368E+01  0.000E+00  0.000E+00  0.000E+00  1.05812E+03  1.040E+00  1.200E+01  6.000E-02  1.347E+00
   1    8    6     2     5    1.9368E+01  2.4193E-01   1.9126E+01  0.000E+00  0.000E+00  0.000E+00  1.05339E+03  1.032E+00  1.200E+01  6.000E-02  1.344E+00
   1    3    5     3     1    2.0000E+00  2.8252E-01   1.7175E+00  0.000E+00  0.000E+00  0.000E+00  1.07555E+03  1.909E+00  9.636E+00  7.227E-02  1.955E+00
   1    3    6     3     2    1.7175E+00  2.4905E-01   1.4684E+00  0.000E+00  0.000E+00  0.000E+00  1.07264E+03  1.727E+00  8.909E+00  6.682E-02  1.864E+00
   1    3    7     3     3    1.4684E+00  1.9718E-01   1.2712E+00  0.000E+00  0.000E+00  0.000E+00  1.06987E+03  1.555E+00  8.218E+00  5.547E-02  1.777E+00
   1    4    8     3     4    1.2712E+00  2.2567E-01   1.0456E+00  0.000E+00  0.000E+00  0.000E+00  1.06682E+03  1.364E+00  7.455E+00  6.709E-02  1.682E+00
   1    5    8     3     5    1.0456E+00  1.5790E-01   8.8768E-01  0.000E+00  0.000E+00  0.000E+00  1.06362E+03  1.164E+00  6.655E+00  4.991E-02  1.582E+00
   1    6    8     3     6    8.8768E-01  5.5980E-02   8.3170E-01  0.000E+00  0.000E+00  0.000E+00  1.06158E+03  1.036E+00  6.145E+00  1.844E-02  1.518E+00
   1    5   10     4     1    1.0000E+01  9.0919E-02   9.9091E+00  0.000E+00  0.000E+00  0.000E+00  1.07836E+03  6.368E-01  1.000E+01  2.500E-02  1.212E+00
   1    5    9     4     2    9.9091E+00  1.8158E-01   9.7275E+00  0.000E+00  0.000E+00  0.000E+00  1.07154E+03  6.315E-01  1.000E+01  5.000E-02  1.211E+00
   1    6    8     4     3    9.7275E+00  1.2689E-01   9.6006E+00  0.000E+00  0.000E+00  0.000E+00  1.06381E+03  6.256E-01  1.000E+01  3.500E-02  1.209E+00
   1    6    8     5     1    1.0432E+01  2.2686E-01   1.0205E+01  0.000E+00  0.000E+00  0.000E+00  1.05868E+03  6.790E-01  1.542E+01  6.166E-02  1.226E+00
   1    7    7     5     2    1.0205E+01  2.7894E-01   9.9265E+00  0.000E+00  0.000E+00  0.000E+00  1.05417E+03  6.732E-01  1.519E+01  7.594E-02  1.224E+00
   1    8    7     5     3    9.9265E+00  1.9221E-01   9.7343E+00  0.000E+00  0.000E+00  0.000E+00  1.04992E+03  6.676E-01  1.497E+01  5.241E-02  1.223E+00
   1    8    6     5     4    9.7343E+00  1.3577E-01   9.5985E+00  0.000E+00  0.000E+00  0.000E+00  1.04691E+03  6.637E-01  1.482E+01  3.706E-02  1.221E+00
   1    9    6     6     1    2.1255E+01  2.4623E-01   2.1008E+01  0.000E+00  0.000E+00  0.000E+00  1.04383E+03  1.104E+00  1.200E+01  6.000E-02  1.368E+00
   1   10    7     6     2    2.1008E+01  2.4577E-01   2.0762E+01  0.000E+00  0.000E+00  0.000E+00  1.03928E+03  1.096E+00  1.200E+01  6.000E-02  1.365E+00
   1   11    7     6     3    2.0762E+01  2.4530E-01   2.0517E+01  0.000E+00  0.000E+00  0.000E+00  1.03472E+03  1.088E+00  1.200E+01  6.000E-02  1.363E+00
   1   12    7     6     4    2.0517E+01  2.4484E-01   2.0272E+01  0.000E+00  0.000E+00  0.000E+00  1.03017E+03  1.081E+00  1.200E+01  6.000E-02  1.360E+00
   1   13    7     6     5    2.0272E+01  8.7681E-03   2.0264E+01  0.000E+00  0.000E+00  0.000E+00  1.02699E+03  1.077E+00  1.200E+01  2.400E-02  1.218E-01
   1   14    9     7     1    1.5000E+02  1.3897E+00   1.4861E+02  0.000E+00  0.000E+00  0.000E+00  1.03987E+03  2.288E+00  5.529E+01  5.593E-01  8.283E-01
   1   13    8     7     2    1.4861E+02  1.9900E+00   1.4662E+02  0.000E+00  0.000E+00  0.000E+00  1.03478E+03  2.279E+00  5.525E+01  6.147E-01  1.079E+00
   1   13    7     7     3    1.4662E+02  1.7129E+00   1.4491E+02  0.000E+00  0.000E+00  0.000E+00  1.02969E+03  2.269E+00  5.521E+01  5.584E-01  1.023E+00
   1   13    6     8     1    1.6517E+02  1.1205E+00   1.6405E+02  0.000E+00  0.000E+00  0.000E+00  1.02479E+03  2.917E+00  4.229E+01  4.310E-01  8.666E-01
   1   13    5     8     2    1.6405E+02  3.5349E-01   1.6370E+02  0.000E+00  0.000E+00  0.000E+00  1.01854E+03  2.912E+00  4.222E+01  4.303E-01  2.739E-01
   1   13    4     8     3    1.6370E+02 -1.8518E+00   1.6555E+02  0.000E+00  0.000E+00  0.000E+00  1.01229E+03  2.917E+00  4.229E+01  4.310E+00 -1.432E-01
   1   13    3     8     4    1.6555E+02 -3.3620E+00   1.6891E+02  0.000E+00  0.000E+00  0.000E+00  1.00606E+03  2.934E+00  4.254E+01  4.335E+00 -2.585E-01
   1   13    2     8     5    1.6891E+02 -2.5211E+00   1.7143E+02  0.000E+00  0.000E+00  0.000E+00  9.99828E+02  2.953E+00  4.282E+01  4.364E+00 -1.926E-01
   1   13    1     8     6    1.7143E+02 -1.9913E+00   1.7342E+02  0.000E+00  0.000E+00  0.000E+00  9.94843E+02  2.968E+00  4.304E+01  2.631E+00 -2.523E-01
   1    8    6     9     1    7.4700E+00  0.0000E+00   7.4700E+00  0.000E+00  0.000E+00  0.000E+00  1.08065E+03  1.902E+00  4.000E+00  0.000E+00  1.634E+00
   1    8    5     9     2    7.4700E+00  0.0000E+00   7.4700E+00  0.000E+00  0.000E+00  0.000E+00  1.08015E+03  1.902E+00  4.000E+00  0.000E+00  1.634E+00





UNSATURATED ZONE PACKAGE VOLUMETRIC BUDGET FOR  TIME STEP    30 STRESS PERIOD   42
  ------------------------------------------------------------------------------



     CUMULATIVE VOLUMES      L**3       RATES FOR THIS TIME STEP      L**3/T
     ------------------                 ------------------------

           IN:                                      IN:
           ---                                      ---
        INFILTRATION =  1318918380.9664          INFILTRATION =           8.3176

          OUT:                                     OUT:
          ----                                     ----
              UZF ET =  1314003177.1053                UZF ET =           8.3175
        UZF RECHARGE =       73224.0000          UZF RECHARGE =       0.0000E+00

            IN - OUT =     4841979.8612              IN - OUT =       1.4877E-04

          STORAGE:                                 STORAGE:
          --------                                 --------
      STORAGE CHANGE =     4841981.3665        STORAGE CHANGE =       1.4922E-04

 PERCENT DISCREPANCY IS DIFFERENCE BETWEEN IN-OUT MINUS CHANGE IN STORAGE
 DIVIDED BY THE AVERAGE OF IN AND OUT TIMES 100

 PERCENT DISCREPANCY =           0.00     PERCENT DISCREPANCY =           0.00






1
  VOLUMETRIC BUDGET FOR AGRICULTURAL FIELDS AT  END OF TIME STEP   30, STRESS PERIOD  42
  ------------------------------------------------------------------------------

     CUMULATIVE VOLUMES      L**3       RATES FOR THIS TIME STEP      L**3/T
     ------------------                 ------------------------

           IN:                                      IN:
           ---                                      ---
           AG WELLS      =   605950784.0000             AG WELLS      =           0.0000
      DIVERSION SEGMENTS =   621564992.0000        DIVERSION SEGMENTS =           7.4700
           GW IRRIGATION =           0.0000             GW IRRIGATION =           0.0000
           SW IRRIGATION =           0.0000             SW IRRIGATION =           0.0000
        SYSTEM LOSSES GW =           0.0000          SYSTEM LOSSES GW =           0.0000
        SYSTEM LOSSES SW =           0.0000          SYSTEM LOSSES SW =           0.0000

                TOTAL IN =  1227515776.0000                  TOTAL IN =           7.4700

          OUT:                                     OUT:
          ----                                     ----
           AG WELLS      =           0.0000             AG WELLS      =           0.0000
      DIVERSION SEGMENTS =           0.0000        DIVERSION SEGMENTS =           0.0000
           GW IRRIGATION =   605950784.0000             GW IRRIGATION =           0.0000
           SW IRRIGATION =   621576576.0000             SW IRRIGATION =           7.4701
        SYSTEM LOSSES GW =           0.0000          SYSTEM LOSSES GW =           0.0000
        SYSTEM LOSSES SW =           0.0000          SYSTEM LOSSES SW =           0.0000

               TOTAL OUT =  1227527424.0000                 TOTAL OUT =           7.4701

                IN - OUT =      -11648.0000                  IN - OUT =      -1.4925E-04

     PERCENT DISCREPANCY =          -0.00         PERCENT DISCREPANCY =          -0.00



1
  VOLUMETRIC BUDGET FOR ENTIRE MODEL AT END OF TIME STEP   30, STRESS PERIOD  42
  ------------------------------------------------------------------------------

     CUMULATIVE VOLUMES      L**3       RATES FOR THIS TIME STEP      L**3/T
     ------------------                 ------------------------

           IN:                                      IN:
           ---                                      ---
             STORAGE     =   913215616.0000               STORAGE     =           1.1270
       CONSTANT HEAD     =           0.0000         CONSTANT HEAD     =           0.0000
     HEAD DEP BOUNDS     =    31125522.0000       HEAD DEP BOUNDS     =           0.2894
      STREAM LEAKAGE     =  1280337920.0000        STREAM LEAKAGE     =          12.4573
        UZF RECHARGE     =       73223.9531          UZF RECHARGE     =           0.0000
               GW ET     =           0.0000                 GW ET     =           0.0000
     SURFACE LEAKAGE     =           0.0000       SURFACE LEAKAGE     =           0.0000
           AG WELLS      =           0.0000             AG WELLS      =           0.0000

                TOTAL IN =  2224752128.0000                  TOTAL IN =          13.8737

          OUT:                                     OUT:
          ----                                     ----
             STORAGE     =   504550112.0000               STORAGE     =           3.8586
       CONSTANT HEAD     =           0.0000         CONSTANT HEAD     =           0.0000
     HEAD DEP BOUNDS     =    31070826.0000       HEAD DEP BOUNDS     =           0.2888
      STREAM LEAKAGE     =  1083200128.0000        STREAM LEAKAGE     =           9.7263
        UZF RECHARGE     =           0.0000          UZF RECHARGE     =           0.0000
               GW ET     =           0.0000                 GW ET     =           0.0000
     SURFACE LEAKAGE     =           0.0000       SURFACE LEAKAGE     =           0.0000
           AG WELLS      =   605950784.0000             AG WELLS      =           0.0000

               TOTAL OUT =  2224771840.0000                 TOTAL OUT =          13.8736

                IN - OUT =      -19712.0000                  IN - OUT =       6.4850E-05

     PERCENT DISCREPANCY =          -0.00         PERCENT DISCREPANCY =           0.00






         TIME SUMMARY AT END OF TIME STEP   30 IN STRESS PERIOD   42
                    SECONDS     MINUTES      HOURS       DAYS        YEARS
                    -----------------------------------------------------------
   TIME STEP LENGTH  87667.      1461.1      24.352      1.0147     2.77799E-03
 STRESS PERIOD TIME 2.63000E+06  43833.      730.56      30.440     8.33397E-02
         TOTAL TIME 1.07916E+08 1.79859E+06  29977.      1249.0      3.4196    
1
1
                            STRESS PERIOD NO.   43, LENGTH =   2630000.    
                            -----------------------------------------------

                              NUMBER OF TIME STEPS =    30

                               MULTIPLIER FOR DELT =     1.000

                            INITIAL TIME STEP SIZE =   87666.66    

 REUSING NON-PARAMETER GHB CELLS FROM LAST STRESS PERIOD

      2 GHB CELLS

 REUSING STREAM SEGMENT DATA FROM LAST STRESS PERIOD



            AREAL INFILTRATION RATE
 READING ON UNIT   19 WITH FORMAT: (FREE)              

            1           2           3           4           5           6           7           8           9          10
 ........................................................................................................................
   1   1.0000E-10  2.0000E-10   0.000       0.000       0.000       0.000       0.000       0.000       0.000       0.000    
   2   2.0000E-10  1.0000E-10  2.0000E-10   0.000       0.000      8.0000E-10  8.0000E-10  5.0000E-10   0.000       0.000    
   3    0.000      5.0000E-10  1.0000E-10  1.0000E-10  8.0000E-10  8.0000E-10  5.0000E-10  5.0000E-10   0.000       0.000    
   4   8.0000E-10  5.0000E-10  1.0000E-10  1.0000E-10  1.0000E-10  1.0000E-10  1.0000E-10  1.0000E-10  2.0000E-10   0.000    
   5   8.0000E-10  5.0000E-10  1.0000E-10  1.0000E-10  1.0000E-10  1.0000E-10  1.0000E-10  1.0000E-10  1.0000E-10  1.0000E-10
   6   8.0000E-10  5.0000E-10  5.0000E-10  2.0000E-10  2.0000E-10  1.0000E-10  1.0000E-10  1.0000E-10  1.0000E-10  5.0000E-10
   7   8.0000E-10  5.0000E-10  5.0000E-10  2.0000E-10  2.0000E-10  1.0000E-10  1.0000E-10  2.0000E-10  2.0000E-10   0.000    
   8    0.000      5.0000E-10  5.0000E-10  2.0000E-10  2.0000E-10  1.0000E-10  1.0000E-10  2.0000E-10  5.0000E-10   0.000    
   9    0.000      5.0000E-10  5.0000E-10  2.0000E-10  2.0000E-10  1.0000E-10  1.0000E-10  2.0000E-10  5.0000E-10   0.000    
  10    0.000      5.0000E-10  5.0000E-10  2.0000E-10  2.0000E-10  1.0000E-10  1.0000E-10  2.0000E-10  5.0000E-10  8.0000E-10
  11    0.000      1.0000E-10  1.0000E-10  1.0000E-10  1.0000E-10  1.0000E-10  1.0000E-10  2.0000E-10  5.0000E-10   0.000    
  12   1.0000E-10  1.0000E-10  1.0000E-10  1.0000E-10  1.0000E-10  1.0000E-10  1.0000E-10  1.0000E-10  2.0000E-10   0.000    
  13   1.0000E-10  1.0000E-10  2.0000E-10  2.0000E-10  2.0000E-10  2.0000E-10  2.0000E-10  1.0000E-10  1.0000E-10   0.000    
  14    0.000      2.0000E-10  5.0000E-10  5.0000E-10  5.0000E-10  5.0000E-10  5.0000E-10  2.0000E-10  1.0000E-10   0.000    
  15    0.000       0.000      8.0000E-10  8.0000E-10  8.0000E-10  8.0000E-10   0.000       0.000       0.000       0.000    

                  ET RATE =  1.500000E-07

 USING ET EXTINCTION DEPTH FROM PREVIOUS STRESS PERIOD. CURRENT PERIOD IS:      43

 USING EXTINCTION WATER CONTENT FROM PREVIOUS STRESS PERIOD. CURRENT PERIOD IS:      43

 USING AIR ENTRY PRESSURE FROM PREVIOUS STRESS PERIOD. CURRENT PERIOD IS:      43

 USING ROOT PRESSURE HEAD FROM PREVIOUS STRESS PERIOD. CURRENT PERIOD IS:      43

 USING ROOT ACTIVITY FROM PREVIOUS STRESS PERIOD. CURRENT PERIOD IS:      43

 PROCESSING AG STRESS PERIOD DATA

 READING AG STRESS PERIOD DATA

 READING IRRIGATION SEGMENT

 READING IRRIGATION WELL

 READING SUPPLEMENTAL WELL

 END PROCESSING AG STRESS PERIOD DATA OPTIONS
 
 SOLVING FOR HEAD 
                                                   Max.-Head-Change                         Max.-Flux-Residual
  Residual-Control   Outer-Iter.   Inner-Iter.     Column Row Layer    Maximum-Head-Change  Column Row Layer    Maximum-Flux-Residual          L2-NORM 
          0                 1           2             4   13     1      -0.5118868663E-02       4   13    1        -0.2922141169E+00      0.8693384085E+00
          0                 2           2             4    7     1      -0.5761794247E-01       4    7    1        -0.3094285840E+01      0.7573776982E+01
          0                 3           2             4    7     1       0.3923514922E-02       4    7    1         0.2165967376E+00      0.5301542119E+00
          0                 4           2             4    7     1      -0.1561205834E-03       4    7    1        -0.8858834509E-02      0.2168342987E-01
          0                 5           1             4    7     1       0.1925033986E-05       4    7    1         0.1122687090E-03      0.2748093428E-03

    ------------------------------------------------
       NWT REQUIRED            5 OUTER ITERATIONS 
       AND A TOTAL OF          9 INNER ITERATIONS.
    ------------------------------------------------

 NO OUTPUT CONTROL FOR STRESS PERIOD   43   TIME STEP    1
 
 SOLVING FOR HEAD 
                                                   Max.-Head-Change                         Max.-Flux-Residual
  Residual-Control   Outer-Iter.   Inner-Iter.     Column Row Layer    Maximum-Head-Change  Column Row Layer    Maximum-Flux-Residual          L2-NORM 
          0                 1           2             5    8     1       0.4941311197E-02       5    8    1         0.2625537631E+00      0.7880072412E+00
          0                 2           2             7   13     1      -0.2266868051E-02       7   13    1        -0.1258130726E+00      0.1474112472E+00
          0                 3           2             4    7     1      -0.2305895907E-01       4    7    1        -0.1238348905E+01      0.3047596438E+01
          0                 4           2             4    7     1       0.2342914358E-01       4    7    1         0.1293393690E+01      0.3168156875E+01
          0                 5           2             4    7     1      -0.9536561407E-03       4    8    1        -0.5411419494E-01      0.1328363982E+00
          0                 6           1             4   13     1      -0.8413493930E-04       4   13    1        -0.5231027751E-02      0.1025184069E-01

    ------------------------------------------------
       NWT REQUIRED            6 OUTER ITERATIONS 
       AND A TOTAL OF         11 INNER ITERATIONS.
    ------------------------------------------------

 NO OUTPUT CONTROL FOR STRESS PERIOD   43   TIME STEP    2
 
 SOLVING FOR HEAD 
                                                   Max.-Head-Change                         Max.-Flux-Residual
  Residual-Control   Outer-Iter.   Inner-Iter.     Column Row Layer    Maximum-Head-Change  Column Row Layer    Maximum-Flux-Residual          L2-NORM 
          0                 1           2             5    8     1       0.4856536328E-02       5    8    1         0.2578500329E+00      0.7780188312E+00
          0                 2           2             4    7     1      -0.4512251768E-01       5    8    1        -0.2425791113E+01      0.5968855062E+01
          0                 3           2             4    7     1       0.2273737743E-01       5    8    1         0.1255391235E+01      0.3075597139E+01
          0                 4           2             4    7     1       0.7320490388E-02       4    7    1         0.4041239605E+00      0.9899849082E+00
          0                 5           2             4    7     1      -0.2913612597E-03       4    7    1        -0.1653278861E-01      0.4051770904E-01
          0                 6           1             4    7     1       0.3595358837E-05       4    7    1         0.2096816761E-03      0.5215391568E-03

    ------------------------------------------------
       NWT REQUIRED            6 OUTER ITERATIONS 
       AND A TOTAL OF         11 INNER ITERATIONS.
    ------------------------------------------------

 NO OUTPUT CONTROL FOR STRESS PERIOD   43   TIME STEP    3
 
 SOLVING FOR HEAD 
                                                   Max.-Head-Change                         Max.-Flux-Residual
  Residual-Control   Outer-Iter.   Inner-Iter.     Column Row Layer    Maximum-Head-Change  Column Row Layer    Maximum-Flux-Residual          L2-NORM 
          0                 1           2             5    8     1       0.5207129781E-02       5    8    1         0.2771299096E+00      0.8131696680E+00
          0                 2           2             4    7     1      -0.1589341459E-01       5    8    1        -0.8575050799E+00      0.2111907573E+01
          0                 3           2             4    7     1      -0.3753476901E-01       4    7    1        -0.2015744861E+01      0.4959989645E+01
          0                 4           2             4    7     1       0.3980459117E-01       4    7    1         0.2197375077E+01      0.5382429206E+01
          0                 5           2             4    7     1      -0.1584495943E-02       4    6    1        -0.9092411342E-01      0.2206285090E+00
          0                 6           1             4    7     1       0.1955198492E-04       4    6    1         0.1153301872E-02      0.2798539943E-02

    ------------------------------------------------
       NWT REQUIRED            6 OUTER ITERATIONS 
       AND A TOTAL OF         11 INNER ITERATIONS.
    ------------------------------------------------

 NO OUTPUT CONTROL FOR STRESS PERIOD   43   TIME STEP    4
 
 SOLVING FOR HEAD 
                                                   Max.-Head-Change                         Max.-Flux-Residual
  Residual-Control   Outer-Iter.   Inner-Iter.     Column Row Layer    Maximum-Head-Change  Column Row Layer    Maximum-Flux-Residual          L2-NORM 
          0                 1           2             5    8     1       0.5533501266E-02       5    8    1         0.2950623583E+00      0.8409994329E+00
          0                 2           2             4    7     1      -0.1605142417E-01       5    8    1        -0.8672616364E+00      0.2134883407E+01
          0                 3           2             4    7     1      -0.3727673495E-01       4    7    1        -0.2001888593E+01      0.4925917253E+01
          0                 4           2             4    7     1       0.3964268222E-01       4    7    1         0.2188441600E+01      0.5360376000E+01
          0                 5           2             4    7     1      -0.1577957578E-02       4    6    1        -0.9014130529E-01      0.2195596994E+00
          0                 6           1             4    7     1       0.1947130426E-04       4    6    1         0.1143261691E-02      0.2784826737E-02

    ------------------------------------------------
       NWT REQUIRED            6 OUTER ITERATIONS 
       AND A TOTAL OF         11 INNER ITERATIONS.
    ------------------------------------------------

 NO OUTPUT CONTROL FOR STRESS PERIOD   43   TIME STEP    5
 
 SOLVING FOR HEAD 
                                                   Max.-Head-Change                         Max.-Flux-Residual
  Residual-Control   Outer-Iter.   Inner-Iter.     Column Row Layer    Maximum-Head-Change  Column Row Layer    Maximum-Flux-Residual          L2-NORM 
          0                 1           2             5    8     1       0.5843940553E-02       5    8    1         0.3121058928E+00      0.8695099792E+00
          0                 2           2             4    7     1      -0.1616956959E-01       5    8    1        -0.8747673216E+00      0.2152434992E+01
          0                 3           2             4    7     1      -0.3708904837E-01       4    7    1        -0.1991810051E+01      0.4901116954E+01
          0                 4           2             4    7     1       0.3952473443E-01       4    7    1         0.2181934814E+01      0.5344271394E+01
          0                 5           2             4    7     1      -0.1573171325E-02       4    6    1        -0.8946833929E-01      0.2187398615E+00
          0                 6           1             4    7     1       0.1941224389E-04       4    6    1         0.1134679061E-02      0.2774385125E-02

    ------------------------------------------------
       NWT REQUIRED            6 OUTER ITERATIONS 
       AND A TOTAL OF         11 INNER ITERATIONS.
    ------------------------------------------------

 NO OUTPUT CONTROL FOR STRESS PERIOD   43   TIME STEP    6
 
 SOLVING FOR HEAD 
                                                   Max.-Head-Change                         Max.-Flux-Residual
  Residual-Control   Outer-Iter.   Inner-Iter.     Column Row Layer    Maximum-Head-Change  Column Row Layer    Maximum-Flux-Residual          L2-NORM 
          0                 1           2             5    8     1       0.6138895912E-02       5    8    1         0.3282860555E+00      0.8982455544E+00
          0                 2           2             4    7     1      -0.1625848912E-01       5    8    1        -0.8805973116E+00      0.2165970236E+01
          0                 3           2             4    7     1      -0.3695314899E-01       4    7    1        -0.1984494649E+01      0.4883186732E+01
          0                 4           2             4    7     1       0.3943942767E-01       4    7    1         0.2177210712E+01      0.5333121510E+01
          0                 5           2             4    7     1      -0.1569729424E-02       4    8    1        -0.8907267227E-01      0.2181819749E+00
          0                 6           1             4    7     1       0.1936977262E-04       4    8    1         0.1129656345E-02      0.2767304603E-02

    ------------------------------------------------
       NWT REQUIRED            6 OUTER ITERATIONS 
       AND A TOTAL OF         11 INNER ITERATIONS.
    ------------------------------------------------

 NO OUTPUT CONTROL FOR STRESS PERIOD   43   TIME STEP    7
 
 SOLVING FOR HEAD 
                                                   Max.-Head-Change                         Max.-Flux-Residual
  Residual-Control   Outer-Iter.   Inner-Iter.     Column Row Layer    Maximum-Head-Change  Column Row Layer    Maximum-Flux-Residual          L2-NORM 
          0                 1           2             5    8     1       0.6419284310E-02       5    8    1         0.3436549673E+00      0.9268156564E+00
          0                 2           2             4    7     1      -0.1632620457E-01       5    8    1        -0.8851854355E+00      0.2176536463E+01
          0                 3           2             4    7     1      -0.3685433270E-01       4    7    1        -0.1979191294E+01      0.4870025567E+01
          0                 4           2             4    7     1       0.3937743990E-01       4    7    1         0.2173788150E+01      0.5324724505E+01
          0                 5           2             4    7     1      -0.1567262208E-02       4    8    1        -0.8893253859E-01      0.2178384236E+00
          0                 6           1             4    7     1       0.1933932794E-04       4    8    1         0.1127879138E-02      0.2762944678E-02

    ------------------------------------------------
       NWT REQUIRED            6 OUTER ITERATIONS 
       AND A TOTAL OF         11 INNER ITERATIONS.
    ------------------------------------------------

 NO OUTPUT CONTROL FOR STRESS PERIOD   43   TIME STEP    8
 
 SOLVING FOR HEAD 
                                                   Max.-Head-Change                         Max.-Flux-Residual
  Residual-Control   Outer-Iter.   Inner-Iter.     Column Row Layer    Maximum-Head-Change  Column Row Layer    Maximum-Flux-Residual          L2-NORM 
          0                 1           2             5    8     1       0.6686029407E-02       5    8    1         0.3582643844E+00      0.9549861844E+00
          0                 2           2             4    7     1      -0.1637832555E-01       5    8    1        -0.8888522965E+00      0.2184911922E+01
          0                 3           2             4    7     1      -0.3678277724E-01       4    7    1        -0.1975348932E+01      0.4860541059E+01
          0                 4           2             4    7     1       0.3933262142E-01       4    7    1         0.2171313183E+01      0.5318655391E+01
          0                 5           2             4    7     1      -0.1565478359E-02       4    8    1        -0.8883118380E-01      0.2175901041E+00
          0                 6           1             4    7     1       0.1931731649E-04       4    8    1         0.1126593712E-02      0.2759789806E-02

    ------------------------------------------------
       NWT REQUIRED            6 OUTER ITERATIONS 
       AND A TOTAL OF         11 INNER ITERATIONS.
    ------------------------------------------------

 NO OUTPUT CONTROL FOR STRESS PERIOD   43   TIME STEP    9
 
 SOLVING FOR HEAD 
                                                   Max.-Head-Change                         Max.-Flux-Residual
  Residual-Control   Outer-Iter.   Inner-Iter.     Column Row Layer    Maximum-Head-Change  Column Row Layer    Maximum-Flux-Residual          L2-NORM 
          0                 1           2             5    8     1       0.6939610605E-02       5    8    1         0.3721417844E+00      0.9826445547E+00
          0                 2           2             4    7     1      -0.1641926109E-01       5    8    1        -0.8918333389E+00      0.2191682821E+01
          0                 3           2             4    7     1      -0.3673090201E-01       4    7    1        -0.1972563330E+01      0.4853654226E+01
          0                 4           2             4    7     1       0.3930024286E-01       4    7    1         0.2169524935E+01      0.5314269007E+01
          0                 5           2             4    7     1      -0.1564189638E-02       4    8    1        -0.8875793351E-01      0.2174106292E+00
          0                 6           1             4    7     1       0.1930141427E-04       4    8    1         0.1125664725E-02      0.2757512370E-02

    ------------------------------------------------
       NWT REQUIRED            6 OUTER ITERATIONS 
       AND A TOTAL OF         11 INNER ITERATIONS.
    ------------------------------------------------

 NO OUTPUT CONTROL FOR STRESS PERIOD   43   TIME STEP   10
 
 SOLVING FOR HEAD 
                                                   Max.-Head-Change                         Max.-Flux-Residual
  Residual-Control   Outer-Iter.   Inner-Iter.     Column Row Layer    Maximum-Head-Change  Column Row Layer    Maximum-Flux-Residual          L2-NORM 
          0                 1           2             5    8     1       0.7180791418E-02       5    8    1         0.3853301294E+00      0.1009664855E+01
          0                 2           2             4    7     1      -0.1645213420E-01       5    8    1        -0.8943017189E+00      0.2197263451E+01
          0                 3           2             4    7     1      -0.3669327075E-01       4    7    1        -0.1970542549E+01      0.4848649313E+01
          0                 4           2             4    7     1       0.3927687187E-01       4    7    1         0.2168233927E+01      0.5311101182E+01
          0                 5           2             4    7     1      -0.1563259434E-02       4    8    1        -0.8870503546E-01      0.2172810226E+00
          0                 6           1             4    7     1       0.1928993600E-04       4    8    1         0.1124993844E-02      0.2755886962E-02

    ------------------------------------------------
       NWT REQUIRED            6 OUTER ITERATIONS 
       AND A TOTAL OF         11 INNER ITERATIONS.
    ------------------------------------------------

 NO OUTPUT CONTROL FOR STRESS PERIOD   43   TIME STEP   11
 
 SOLVING FOR HEAD 
                                                   Max.-Head-Change                         Max.-Flux-Residual
  Residual-Control   Outer-Iter.   Inner-Iter.     Column Row Layer    Maximum-Head-Change  Column Row Layer    Maximum-Flux-Residual          L2-NORM 
          0                 1           2             5    8     1       0.7410588689E-02       5    8    1         0.3978865108E+00      0.1035977345E+01
          0                 2           2             4    7     1      -0.1647920250E-01       5    8    1        -0.8963861101E+00      0.2201962044E+01
          0                 3           2             4    7     1      -0.3666591289E-01       4    7    1        -0.1969073368E+01      0.4845002961E+01
          0                 4           2             4    7     1       0.3926001056E-01       4    7    1         0.2167302269E+01      0.5308814122E+01
          0                 5           2             4    7     1      -0.1562588326E-02       4    8    1        -0.8866684745E-01      0.2171874164E+00
          0                 6           1             4    7     1       0.1928165467E-04       4    8    1         0.1124509550E-02      0.2754675801E-02

    ------------------------------------------------
       NWT REQUIRED            6 OUTER ITERATIONS 
       AND A TOTAL OF         11 INNER ITERATIONS.
    ------------------------------------------------

 NO OUTPUT CONTROL FOR STRESS PERIOD   43   TIME STEP   12
 
 SOLVING FOR HEAD 
                                                   Max.-Head-Change                         Max.-Flux-Residual
  Residual-Control   Outer-Iter.   Inner-Iter.     Column Row Layer    Maximum-Head-Change  Column Row Layer    Maximum-Flux-Residual          L2-NORM 
          0                 1           2             5    8     1       0.7629264176E-02       5    8    1         0.4098256412E+00      0.1061528884E+01
          0                 2           2             4    7     1      -0.1650209754E-01       5    8    1        -0.8981778674E+00      0.2206002640E+01
          0                 3           2             4    7     1      -0.3664595719E-01       4    7    1        -0.1968001606E+01      0.4842341001E+01
          0                 4           2             4    7     1       0.3924783839E-01       4    7    1         0.2166629462E+01      0.5307160725E+01
          0                 5           2             4    7     1      -0.1562103853E-02       4    8    1        -0.8863925681E-01      0.2171196095E+00
          0                 6           1             4    7     1       0.1927567649E-04       4    8    1         0.1124159641E-02      0.2753780640E-02

    ------------------------------------------------
       NWT REQUIRED            6 OUTER ITERATIONS 
       AND A TOTAL OF         11 INNER ITERATIONS.
    ------------------------------------------------

 NO OUTPUT CONTROL FOR STRESS PERIOD   43   TIME STEP   13
 
 SOLVING FOR HEAD 
                                                   Max.-Head-Change                         Max.-Flux-Residual
  Residual-Control   Outer-Iter.   Inner-Iter.     Column Row Layer    Maximum-Head-Change  Column Row Layer    Maximum-Flux-Residual          L2-NORM 
          0                 1           2             5    8     1       0.7837776832E-02       5    8    1         0.4212013569E+00      0.1086299324E+01
          0                 2           2             4    7     1      -0.1652198806E-01       5    8    1        -0.8997458535E+00      0.2209544924E+01
          0                 3           2             4    7     1      -0.3663135844E-01       4    7    1        -0.1967217432E+01      0.4840384480E+01
          0                 4           2             4    7     1       0.3925901509E-01       5    7    1         0.2166119428E+01      0.5305933571E+01
          0                 5           2             4    7     1      -0.1581958751E-02       4    7    1        -0.8982724388E-01      0.2175706361E+00
          0                 6           1             4    7     1       0.1952067302E-04       4    7    1         0.1139438659E-02      0.2759793294E-02

    ------------------------------------------------
       NWT REQUIRED            6 OUTER ITERATIONS 
       AND A TOTAL OF         11 INNER ITERATIONS.
    ------------------------------------------------

 NO OUTPUT CONTROL FOR STRESS PERIOD   43   TIME STEP   14
 
 SOLVING FOR HEAD 
                                                   Max.-Head-Change                         Max.-Flux-Residual
  Residual-Control   Outer-Iter.   Inner-Iter.     Column Row Layer    Maximum-Head-Change  Column Row Layer    Maximum-Flux-Residual          L2-NORM 
          0                 1           2             5    8     1       0.8036606453E-02       5    8    1         0.4320404774E+00      0.1110276571E+01
          0                 2           2             4    7     1      -0.1653972371E-01       5    8    1        -0.9011397187E+00      0.2212708254E+01
          0                 3           2             4    7     1      -0.3662061425E-01       4    7    1        -0.1966640172E+01      0.4838940367E+01
          0                 4           2             4    7     1       0.3924635153E-01       5    7    1         0.2165767790E+01      0.5304921844E+01
          0                 5           2             4    7     1      -0.1575293767E-02       4    7    1        -0.8942908045E-01      0.2173753778E+00
          0                 6           1             4    7     1       0.1943843175E-04       4    7    1         0.1134285492E-02      0.2757130309E-02

    ------------------------------------------------
       NWT REQUIRED            6 OUTER ITERATIONS 
       AND A TOTAL OF         11 INNER ITERATIONS.
    ------------------------------------------------

 NO OUTPUT CONTROL FOR STRESS PERIOD   43   TIME STEP   15
 
 SOLVING FOR HEAD 
                                                   Max.-Head-Change                         Max.-Flux-Residual
  Residual-Control   Outer-Iter.   Inner-Iter.     Column Row Layer    Maximum-Head-Change  Column Row Layer    Maximum-Flux-Residual          L2-NORM 
          0                 1           2             5    8     1       0.8226203156E-02       5    8    1         0.4423683920E+00      0.1133459837E+01
          0                 2           2             4    7     1      -0.1655589894E-01       5    8    1        -0.9023958574E+00      0.2215578187E+01
          0                 3           2             4    7     1      -0.3661263525E-01       4    7    1        -0.1966211332E+01      0.4837866271E+01
          0                 4           2             4    7     1       0.3923557341E-01       4    8    1         0.2165501811E+01      0.5304146221E+01
          0                 5           2             4    7     1      -0.1568829718E-02       4    7    1        -0.8904272692E-01      0.2171908899E+00
          0                 6           1             4    7     1       0.1935866939E-04       4    7    1         0.1129284214E-02      0.2755393158E-02

    ------------------------------------------------
       NWT REQUIRED            6 OUTER ITERATIONS 
       AND A TOTAL OF         11 INNER ITERATIONS.
    ------------------------------------------------

 NO OUTPUT CONTROL FOR STRESS PERIOD   43   TIME STEP   16
 
 SOLVING FOR HEAD 
                                                   Max.-Head-Change                         Max.-Flux-Residual
  Residual-Control   Outer-Iter.   Inner-Iter.     Column Row Layer    Maximum-Head-Change  Column Row Layer    Maximum-Flux-Residual          L2-NORM 
          0                 1           2             5    8     1       0.8407415052E-02       5    8    1         0.4522323637E+00      0.1155880342E+01
          0                 2           2             4    7     1      -0.1657096366E-01       5    8    1        -0.9035428378E+00      0.2218219833E+01
          0                 3           2             4    7     1      -0.3660665741E-01       4    7    1        -0.1965889884E+01      0.4837062013E+01
          0                 4           2             4    7     1       0.3922619669E-01       4    8    1         0.2165317716E+01      0.5303540986E+01
          0                 5           2             4    7     1      -0.1562546179E-02       4    7    1        -0.8866702054E-01      0.2170139052E+00
          0                 6           1             4    7     1       0.1928113502E-04       4    7    1         0.1124516242E-02      0.2754518547E-02

    ------------------------------------------------
       NWT REQUIRED            6 OUTER ITERATIONS 
       AND A TOTAL OF         11 INNER ITERATIONS.
    ------------------------------------------------

 NO OUTPUT CONTROL FOR STRESS PERIOD   43   TIME STEP   17
 
 SOLVING FOR HEAD 
                                                   Max.-Head-Change                         Max.-Flux-Residual
  Residual-Control   Outer-Iter.   Inner-Iter.     Column Row Layer    Maximum-Head-Change  Column Row Layer    Maximum-Flux-Residual          L2-NORM 
          0                 1           2             5    8     1       0.8580469593E-02       5    8    1         0.4616452180E+00      0.1177535251E+01
          0                 2           2             4    7     1      -0.1658520822E-01       5    8    1        -0.9046000027E+00      0.2220678117E+01
          0                 3           2             4    7     1      -0.3662743585E-01       4    7    1        -0.1965948256E+01      0.4836574135E+01
          0                 4           2             4    7     1       0.3924420291E-01       4    7    1         0.2165246387E+01      0.5303687415E+01
          0                 5           2             4    7     1      -0.1561943715E-02       4    8    1        -0.8858154174E-01      0.2169604028E+00
          0                 6           1             4    7     1       0.1927372551E-04       4    8    1         0.1123427678E-02      0.2755753491E-02

    ------------------------------------------------
       NWT REQUIRED            6 OUTER ITERATIONS 
       AND A TOTAL OF         11 INNER ITERATIONS.
    ------------------------------------------------

 NO OUTPUT CONTROL FOR STRESS PERIOD   43   TIME STEP   18
 
 SOLVING FOR HEAD 
                                                   Max.-Head-Change                         Max.-Flux-Residual
  Residual-Control   Outer-Iter.   Inner-Iter.     Column Row Layer    Maximum-Head-Change  Column Row Layer    Maximum-Flux-Residual          L2-NORM 
          0                 1           2             5    8     1       0.8745996599E-02       5    8    1         0.4706424050E+00      0.1198382432E+01
          0                 2           2             4    7     1      -0.1660740408E-01       5    8    1        -0.9055831160E+00      0.2222975836E+01
          0                 3           2             4    7     1      -0.3661860309E-01       4    7    1        -0.1965458784E+01      0.4835979174E+01
          0                 4           2             4    7     1       0.3924209928E-01       4    7    1         0.2165128853E+01      0.5303431889E+01
          0                 5           2             4    7     1      -0.1561859988E-02       4    7    1        -0.8857545250E-01      0.2169437931E+00
          0                 6           1             4    7     1       0.1927269272E-04       4    7    1         0.1123356533E-02      0.2756004512E-02

    ------------------------------------------------
       NWT REQUIRED            6 OUTER ITERATIONS 
       AND A TOTAL OF         11 INNER ITERATIONS.
    ------------------------------------------------

 NO OUTPUT CONTROL FOR STRESS PERIOD   43   TIME STEP   19
 
 SOLVING FOR HEAD 
                                                   Max.-Head-Change                         Max.-Flux-Residual
  Residual-Control   Outer-Iter.   Inner-Iter.     Column Row Layer    Maximum-Head-Change  Column Row Layer    Maximum-Flux-Residual          L2-NORM 
          0                 1           2             5    8     1       0.8904308062E-02       5    8    1         0.4792410690E+00      0.1218501071E+01
          0                 2           2             4    7     1      -0.1662008303E-01       5    8    1        -0.9065032501E+00      0.2225148038E+01
          0                 3           2             4    7     1      -0.3661587174E-01       4    7    1        -0.1965312133E+01      0.4835604881E+01
          0                 4           2             4    7     1       0.3924082503E-01       4    7    1         0.2165058147E+01      0.5303256422E+01
          0                 5           2             4    7     1      -0.1561809272E-02       4    7    1        -0.8857255991E-01      0.2169365866E+00
          0                 6           1             4    7     1       0.1927206689E-04       4    7    1         0.1123319839E-02      0.2755903358E-02

    ------------------------------------------------
       NWT REQUIRED            6 OUTER ITERATIONS 
       AND A TOTAL OF         11 INNER ITERATIONS.
    ------------------------------------------------

 NO OUTPUT CONTROL FOR STRESS PERIOD   43   TIME STEP   20
 
 SOLVING FOR HEAD 
                                                   Max.-Head-Change                         Max.-Flux-Residual
  Residual-Control   Outer-Iter.   Inner-Iter.     Column Row Layer    Maximum-Head-Change  Column Row Layer    Maximum-Flux-Residual          L2-NORM 
          0                 1           2             5    8     1       0.9055833146E-02       5    8    1         0.4874654821E+00      0.1237926377E+01
          0                 2           2             4    7     1      -0.1663244710E-01       5    8    1        -0.9073687331E+00      0.2227214439E+01
          0                 3           2             4    7     1      -0.3661368778E-01       4    7    1        -0.1965194794E+01      0.4835305305E+01
          0                 4           2             4    7     1       0.3923990359E-01       4    7    1         0.2165006897E+01      0.5303128909E+01
          0                 5           2             4    7     1      -0.1562462064E-02       4    7    1        -0.8860956393E-01      0.2170271348E+00
          0                 6           1             4    7     1       0.1928012206E-04       4    7    1         0.1123789139E-02      0.2757051194E-02

    ------------------------------------------------
       NWT REQUIRED            6 OUTER ITERATIONS 
       AND A TOTAL OF         11 INNER ITERATIONS.
    ------------------------------------------------

 NO OUTPUT CONTROL FOR STRESS PERIOD   43   TIME STEP   21
 
 SOLVING FOR HEAD 
                                                   Max.-Head-Change                         Max.-Flux-Residual
  Residual-Control   Outer-Iter.   Inner-Iter.     Column Row Layer    Maximum-Head-Change  Column Row Layer    Maximum-Flux-Residual          L2-NORM 
          0                 1           2             5    8     1       0.9201138693E-02       5    8    1         0.4953469033E+00      0.1256697000E+01
          0                 2           2             4    7     1      -0.1664401332E-01       5    8    1        -0.9081568820E+00      0.2229115116E+01
          0                 3           2             4    7     1      -0.3661288570E-01       4    7    1        -0.1965151560E+01      0.4835190816E+01
          0                 4           2             4    7     1       0.3923985632E-01       4    7    1         0.2165003870E+01      0.5303119797E+01
          0                 5           2             4    7     1      -0.1562460182E-02       4    7    1        -0.8860944009E-01      0.2170267407E+00
          0                 6           1             4    7     1       0.1928009865E-04       4    7    1         0.1123787560E-02      0.2757037953E-02

    ------------------------------------------------
       NWT REQUIRED            6 OUTER ITERATIONS 
       AND A TOTAL OF         11 INNER ITERATIONS.
    ------------------------------------------------

 NO OUTPUT CONTROL FOR STRESS PERIOD   43   TIME STEP   22
 
 SOLVING FOR HEAD 
                                                   Max.-Head-Change                         Max.-Flux-Residual
  Residual-Control   Outer-Iter.   Inner-Iter.     Column Row Layer    Maximum-Head-Change  Column Row Layer    Maximum-Flux-Residual          L2-NORM 
          0                 1           2             5    8     1       0.9340415895E-02       5    8    1         0.5028963219E+00      0.1274834510E+01
          0                 2           2             4    7     1      -0.1665556796E-01       5    8    1        -0.9089118304E+00      0.2230958180E+01
          0                 3           2             4    7     1      -0.3661208448E-01       4    7    1        -0.1965108314E+01      0.4835079024E+01
          0                 4           2             4    7     1       0.3923980917E-01       4    7    1         0.2165000843E+01      0.5303110934E+01
          0                 5           2             4    7     1      -0.1562458306E-02       4    7    1        -0.8860931624E-01      0.2170263662E+00
          0                 6           1             4    7     1       0.1928007580E-04       4    7    1         0.1123785995E-02      0.2757041169E-02

    ------------------------------------------------
       NWT REQUIRED            6 OUTER ITERATIONS 
       AND A TOTAL OF         11 INNER ITERATIONS.
    ------------------------------------------------

 NO OUTPUT CONTROL FOR STRESS PERIOD   43   TIME STEP   23
 
 SOLVING FOR HEAD 
                                                   Max.-Head-Change                         Max.-Flux-Residual
  Residual-Control   Outer-Iter.   Inner-Iter.     Column Row Layer    Maximum-Head-Change  Column Row Layer    Maximum-Flux-Residual          L2-NORM 
          0                 1           2             5    8     1       0.9474020535E-02       5    8    1         0.5101331821E+00      0.1292364459E+01
          0                 2           2             4    7     1      -0.1666709718E-01       5    8    1        -0.9096355227E+00      0.2232745877E+01
          0                 3           2             4    7     1      -0.3661128510E-01       4    7    1        -0.1965065112E+01      0.4834970154E+01
          0                 4           2             4    7     1       0.3923976218E-01       4    7    1         0.2164997818E+01      0.5303102327E+01
          0                 5           2             4    7     1      -0.1562456436E-02       4    7    1        -0.8860919251E-01      0.2170260040E+00
          0                 6           1             4    7     1       0.1928005261E-04       4    7    1         0.1123784426E-02      0.2757034715E-02

    ------------------------------------------------
       NWT REQUIRED            6 OUTER ITERATIONS 
       AND A TOTAL OF         11 INNER ITERATIONS.
    ------------------------------------------------

 NO OUTPUT CONTROL FOR STRESS PERIOD   43   TIME STEP   24
 
 SOLVING FOR HEAD 
                                                   Max.-Head-Change                         Max.-Flux-Residual
  Residual-Control   Outer-Iter.   Inner-Iter.     Column Row Layer    Maximum-Head-Change  Column Row Layer    Maximum-Flux-Residual          L2-NORM 
          0                 1           2             5    8     1       0.9602282567E-02       5    8    1         0.5170759305E+00      0.1309308785E+01
          0                 2           2             4    7     1      -0.1667858832E-01       5    8    1        -0.9103298036E+00      0.2234479869E+01
          0                 3           2             4    7     1      -0.3661048842E-01       4    7    1        -0.1965022004E+01      0.4834863979E+01
          0                 4           2             4    7     1       0.3923971542E-01       4    7    1         0.2164994800E+01      0.5303093957E+01
          0                 5           2             4    7     1      -0.1562454575E-02       4    7    1        -0.8860906904E-01      0.2170256415E+00
          0                 6           1             4    7     1       0.1928002965E-04       4    7    1         0.1123782849E-02      0.2757023884E-02

    ------------------------------------------------
       NWT REQUIRED            6 OUTER ITERATIONS 
       AND A TOTAL OF         11 INNER ITERATIONS.
    ------------------------------------------------

 NO OUTPUT CONTROL FOR STRESS PERIOD   43   TIME STEP   25
 
 SOLVING FOR HEAD 
                                                   Max.-Head-Change                         Max.-Flux-Residual
  Residual-Control   Outer-Iter.   Inner-Iter.     Column Row Layer    Maximum-Head-Change  Column Row Layer    Maximum-Flux-Residual          L2-NORM 
          0                 1           2             5    8     1       0.9725503114E-02       5    8    1         0.5237416747E+00      0.1325696283E+01
          0                 2           2             4    7     1      -0.1669001668E-01       5    8    1        -0.9109963838E+00      0.2236162995E+01
          0                 3           2             4    7     1      -0.3660969615E-01       4    7    1        -0.1964979090E+01      0.4834760304E+01
          0                 4           2             4    7     1       0.3923966898E-01       4    7    1         0.2164991796E+01      0.5303085816E+01
          0                 5           2             4    7     1      -0.1562452727E-02       4    7    1        -0.8860894615E-01      0.2170252974E+00
          0                 6           1             4    7     1       0.1928000691E-04       4    7    1         0.1123781309E-02      0.2757019969E-02

    ------------------------------------------------
       NWT REQUIRED            6 OUTER ITERATIONS 
       AND A TOTAL OF         11 INNER ITERATIONS.
    ------------------------------------------------

 NO OUTPUT CONTROL FOR STRESS PERIOD   43   TIME STEP   26
 
 SOLVING FOR HEAD 
                                                   Max.-Head-Change                         Max.-Flux-Residual
  Residual-Control   Outer-Iter.   Inner-Iter.     Column Row Layer    Maximum-Head-Change  Column Row Layer    Maximum-Flux-Residual          L2-NORM 
          0                 1           2             5    8     1       0.9843971605E-02       5    8    1         0.5301460272E+00      0.1341557468E+01
          0                 2           2             4    7     1      -0.1670138588E-01       5    8    1        -0.9116368246E+00      0.2237797680E+01
          0                 3           2             4    7     1      -0.3660890804E-01       4    7    1        -0.1964936359E+01      0.4834659244E+01
          0                 4           2             4    7     1       0.3923962284E-01       4    7    1         0.2164988804E+01      0.5303077885E+01
          0                 5           2             4    7     1      -0.1562450891E-02       4    7    1        -0.8860882376E-01      0.2170249561E+00
          0                 6           1             4    7     1       0.1927998406E-04       4    7    1         0.1123779744E-02      0.2757009876E-02

    ------------------------------------------------
       NWT REQUIRED            6 OUTER ITERATIONS 
       AND A TOTAL OF         11 INNER ITERATIONS.
    ------------------------------------------------

 NO OUTPUT CONTROL FOR STRESS PERIOD   43   TIME STEP   27
 
 SOLVING FOR HEAD 
                                                   Max.-Head-Change                         Max.-Flux-Residual
  Residual-Control   Outer-Iter.   Inner-Iter.     Column Row Layer    Maximum-Head-Change  Column Row Layer    Maximum-Flux-Residual          L2-NORM 
          0                 1           2             5    8     1       0.9957811628E-02       5    8    1         0.5362961391E+00      0.1356908287E+01
          0                 2           2             4    7     1      -0.1671268658E-01       5    8    1        -0.9122518412E+00      0.2239385415E+01
          0                 3           2             4    7     1      -0.3660812474E-01       4    7    1        -0.1964893849E+01      0.4834560547E+01
          0                 4           2             4    7     1       0.3923957703E-01       4    7    1         0.2164985828E+01      0.5303070185E+01
          0                 5           2             4    7     1      -0.1562449068E-02       4    7    1        -0.8860870199E-01      0.2170246316E+00
          0                 6           1             4    7     1       0.1927996155E-04       4    7    1         0.1123778201E-02      0.2757000713E-02

    ------------------------------------------------
       NWT REQUIRED            6 OUTER ITERATIONS 
       AND A TOTAL OF         11 INNER ITERATIONS.
    ------------------------------------------------

 NO OUTPUT CONTROL FOR STRESS PERIOD   43   TIME STEP   28
 
 SOLVING FOR HEAD 
                                                   Max.-Head-Change                         Max.-Flux-Residual
  Residual-Control   Outer-Iter.   Inner-Iter.     Column Row Layer    Maximum-Head-Change  Column Row Layer    Maximum-Flux-Residual          L2-NORM 
          0                 1           2             5    8     1       0.1006756497E-01       5    8    1         0.5422219844E+00      0.1371778857E+01
          0                 2           2             4    7     1      -0.1672389667E-01       5    8    1        -0.9128444308E+00      0.2240928643E+01
          0                 3           2             4    7     1      -0.3660734778E-01       4    7    1        -0.1964851645E+01      0.4834464077E+01
          0                 4           2             4    7     1       0.3923953165E-01       4    7    1         0.2164982873E+01      0.5303062679E+01
          0                 5           2             4    7     1      -0.1562447262E-02       4    7    1        -0.8860858111E-01      0.2170243194E+00
          0                 6           1             4    7     1       0.1927993948E-04       4    7    1         0.1123776672E-02      0.2757003897E-02

    ------------------------------------------------
       NWT REQUIRED            6 OUTER ITERATIONS 
       AND A TOTAL OF         11 INNER ITERATIONS.
    ------------------------------------------------

 NO OUTPUT CONTROL FOR STRESS PERIOD   43   TIME STEP   29
 
 SOLVING FOR HEAD 
                                                   Max.-Head-Change                         Max.-Flux-Residual
  Residual-Control   Outer-Iter.   Inner-Iter.     Column Row Layer    Maximum-Head-Change  Column Row Layer    Maximum-Flux-Residual          L2-NORM 
          0                 1           2             5    8     1       0.1017317493E-01       5    8    1         0.5479202324E+00      0.1386189059E+01
          0                 2           2             4    7     1      -0.1673503587E-01       5    8    1        -0.9134142605E+00      0.2242429123E+01
          0                 3           2             4    7     1      -0.3660657578E-01       4    7    1        -0.1964809677E+01      0.4834370306E+01
          0                 4           2             4    7     1       0.3923948661E-01       4    7    1         0.2164979935E+01      0.5303055376E+01
          0                 5           2             4    7     1      -0.1562445469E-02       4    7    1        -0.8860846092E-01      0.2170240025E+00
          0                 6           1             4    7     1       0.1927991730E-04       4    7    1         0.1123775154E-02      0.2756991082E-02

    ------------------------------------------------
       NWT REQUIRED            6 OUTER ITERATIONS 
       AND A TOTAL OF         11 INNER ITERATIONS.
    ------------------------------------------------

 NO OUTPUT CONTROL FOR STRESS PERIOD   43   TIME STEP   30



 STREAM LISTING     PERIOD     43   STEP       30

 LAYER ROW COL. STREAM  RCH.  FLOW INTO     FLOW TO   FLOW OUT OF   OVRLND.     DIRECT     STREAM       STREAM     STREAM     STREAM   STREAMBED  STREAMBED
                SEG.NO.  NO.  STRM. RCH.    AQUIFER    STRM. RCH.    RUNOFF     PRECIP       ET          HEAD       DEPTH      WIDTH   CONDCTNC.   GRADIENT

   1    1    1     1     1    2.1749E+01  2.2965E-01   2.1520E+01  0.000E+00  0.000E+00  0.000E+00  1.09418E+03  1.128E+00  1.236E+01  5.564E-02  1.376E+00
   1    2    2     1     2    2.1520E+01  3.5497E-01   2.1165E+01  0.000E+00  0.000E+00  0.000E+00  1.08918E+03  1.123E+00  1.230E+01  8.610E-02  1.374E+00
   1    3    3     1     3    2.1165E+01  3.0207E-01   2.0863E+01  0.000E+00  0.000E+00  0.000E+00  1.08354E+03  1.117E+00  1.223E+01  7.337E-02  1.372E+00
   1    3    4     1     4    2.0863E+01  2.7761E-01   2.0585E+01  0.000E+00  0.000E+00  0.000E+00  1.07852E+03  1.112E+00  1.216E+01  6.751E-02  1.371E+00
   1    4    5     2     1    1.8585E+01  3.1244E-01   1.8273E+01  0.000E+00  0.000E+00  0.000E+00  1.07294E+03  1.006E+00  1.200E+01  7.800E-02  1.335E+00
   1    5    6     2     2    1.8273E+01  2.3979E-01   1.8033E+01  0.000E+00  0.000E+00  0.000E+00  1.06751E+03  9.966E-01  1.200E+01  6.000E-02  1.332E+00
   1    6    6     2     3    1.8033E+01  2.3932E-01   1.7793E+01  0.000E+00  0.000E+00  0.000E+00  1.06278E+03  9.887E-01  1.200E+01  6.000E-02  1.330E+00
   1    7    6     2     4    1.7793E+01  2.3884E-01   1.7555E+01  0.000E+00  0.000E+00  0.000E+00  1.05806E+03  9.807E-01  1.200E+01  6.000E-02  1.327E+00
   1    8    6     2     5    1.7555E+01  2.3837E-01   1.7316E+01  0.000E+00  0.000E+00  0.000E+00  1.05333E+03  9.728E-01  1.200E+01  6.000E-02  1.324E+00
   1    3    5     3     1    2.0000E+00  2.8252E-01   1.7175E+00  0.000E+00  0.000E+00  0.000E+00  1.07555E+03  1.909E+00  9.636E+00  7.227E-02  1.955E+00
   1    3    6     3     2    1.7175E+00  2.4905E-01   1.4684E+00  0.000E+00  0.000E+00  0.000E+00  1.07264E+03  1.727E+00  8.909E+00  6.682E-02  1.864E+00
   1    3    7     3     3    1.4684E+00  1.9718E-01   1.2712E+00  0.000E+00  0.000E+00  0.000E+00  1.06987E+03  1.555E+00  8.218E+00  5.547E-02  1.777E+00
   1    4    8     3     4    1.2712E+00  2.2567E-01   1.0456E+00  0.000E+00  0.000E+00  0.000E+00  1.06682E+03  1.364E+00  7.455E+00  6.709E-02  1.682E+00
   1    5    8     3     5    1.0456E+00  1.5790E-01   8.8768E-01  0.000E+00  0.000E+00  0.000E+00  1.06362E+03  1.164E+00  6.655E+00  4.991E-02  1.582E+00
   1    6    8     3     6    8.8768E-01  5.5980E-02   8.3170E-01  0.000E+00  0.000E+00  0.000E+00  1.06158E+03  1.036E+00  6.145E+00  1.844E-02  1.518E+00
   1    5   10     4     1    1.0000E+01  9.0919E-02   9.9091E+00  0.000E+00  0.000E+00  0.000E+00  1.07836E+03  6.368E-01  1.000E+01  2.500E-02  1.212E+00
   1    5    9     4     2    9.9091E+00  1.8158E-01   9.7275E+00  0.000E+00  0.000E+00  0.000E+00  1.07154E+03  6.315E-01  1.000E+01  5.000E-02  1.211E+00
   1    6    8     4     3    9.7275E+00  1.2689E-01   9.6006E+00  0.000E+00  0.000E+00  0.000E+00  1.06381E+03  6.256E-01  1.000E+01  3.500E-02  1.209E+00
   1    6    8     5     1    1.0432E+01  2.2686E-01   1.0205E+01  0.000E+00  0.000E+00  0.000E+00  1.05868E+03  6.790E-01  1.542E+01  6.166E-02  1.226E+00
   1    7    7     5     2    1.0205E+01  2.7894E-01   9.9265E+00  0.000E+00  0.000E+00  0.000E+00  1.05417E+03  6.732E-01  1.519E+01  7.594E-02  1.224E+00
   1    8    7     5     3    9.9265E+00  1.9221E-01   9.7343E+00  0.000E+00  0.000E+00  0.000E+00  1.04992E+03  6.676E-01  1.497E+01  5.241E-02  1.223E+00
   1    8    6     5     4    9.7343E+00  1.3577E-01   9.5985E+00  0.000E+00  0.000E+00  0.000E+00  1.04691E+03  6.637E-01  1.482E+01  3.706E-02  1.221E+00
   1    9    6     6     1    9.5985E+00  2.2097E-01   9.3776E+00  0.000E+00  0.000E+00  0.000E+00  1.04341E+03  6.828E-01  1.200E+01  6.000E-02  1.228E+00
   1   10    7     6     2    9.3776E+00  2.2039E-01   9.1572E+00  0.000E+00  0.000E+00  0.000E+00  1.03885E+03  6.732E-01  1.200E+01  6.000E-02  1.224E+00
   1   11    7     6     3    9.1572E+00  2.1981E-01   8.9374E+00  0.000E+00  0.000E+00  0.000E+00  1.03430E+03  6.636E-01  1.200E+01  6.000E-02  1.221E+00
   1   12    7     6     4    8.9374E+00  2.1923E-01   8.7181E+00  0.000E+00  0.000E+00  0.000E+00  1.02974E+03  6.539E-01  1.200E+01  6.000E-02  1.218E+00
   1   13    7     6     5    8.7181E+00 -1.1205E-02   8.7293E+00  0.000E+00  0.000E+00  0.000E+00  1.02656E+03  6.492E-01  1.200E+01  2.400E-01 -1.556E-02
   1   14    9     7     1    1.5000E+02  1.3906E+00   1.4861E+02  0.000E+00  0.000E+00  0.000E+00  1.03987E+03  2.288E+00  5.529E+01  5.593E-01  8.288E-01
   1   13    8     7     2    1.4861E+02  1.9923E+00   1.4662E+02  0.000E+00  0.000E+00  0.000E+00  1.03478E+03  2.279E+00  5.525E+01  6.147E-01  1.080E+00
   1   13    7     7     3    1.4662E+02  1.7214E+00   1.4490E+02  0.000E+00  0.000E+00  0.000E+00  1.02969E+03  2.269E+00  5.521E+01  5.584E-01  1.028E+00
   1   13    6     8     1    1.5363E+02  1.0706E+00   1.5255E+02  0.000E+00  0.000E+00  0.000E+00  1.02471E+03  2.838E+00  4.116E+01  4.194E-01  8.509E-01
   1   13    5     8     2    1.5255E+02  3.2416E-01   1.5223E+02  0.000E+00  0.000E+00  0.000E+00  1.01846E+03  2.834E+00  4.109E+01  4.187E-01  2.581E-01
   1   13    4     8     3    1.5223E+02 -1.9135E+00   1.5414E+02  0.000E+00  0.000E+00  0.000E+00  1.01221E+03  2.839E+00  4.117E+01  4.195E+00 -1.520E-01
   1   13    3     8     4    1.5414E+02 -3.3904E+00   1.5753E+02  0.000E+00  0.000E+00  0.000E+00  1.00598E+03  2.857E+00  4.143E+01  4.222E+00 -2.677E-01
   1   13    2     8     5    1.5753E+02 -2.5408E+00   1.6008E+02  0.000E+00  0.000E+00  0.000E+00  9.99753E+02  2.878E+00  4.173E+01  4.252E+00 -1.992E-01
   1   13    1     8     6    1.6008E+02 -2.0041E+00   1.6208E+02  0.000E+00  0.000E+00  0.000E+00  9.94768E+02  2.893E+00  4.195E+01  2.565E+00 -2.605E-01
   1    8    6     9     1    1.7316E+01  0.0000E+00   1.7316E+01  0.000E+00  0.000E+00  0.000E+00  1.08190E+03  3.150E+00  4.000E+00  0.000E+00  2.050E+00
   1    8    5     9     2    1.7316E+01  0.0000E+00   1.7316E+01  0.000E+00  0.000E+00  0.000E+00  1.08140E+03  3.150E+00  4.000E+00  0.000E+00  2.050E+00





UNSATURATED ZONE PACKAGE VOLUMETRIC BUDGET FOR  TIME STEP    30 STRESS PERIOD   43
  ------------------------------------------------------------------------------



     CUMULATIVE VOLUMES      L**3       RATES FOR THIS TIME STEP      L**3/T
     ------------------                 ------------------------

           IN:                                      IN:
           ---                                      ---
        INFILTRATION =  1380279445.6397          INFILTRATION =          23.3175

          OUT:                                     OUT:
          ----                                     ----
              UZF ET =  1375312118.2317                UZF ET =          23.3175
        UZF RECHARGE =       73224.0000          UZF RECHARGE =       0.0000E+00

            IN - OUT =     4894103.4081              IN - OUT =       0.0000E+00

          STORAGE:                                 STORAGE:
          --------                                 --------
      STORAGE CHANGE =     4894104.4166        STORAGE CHANGE =      -3.4028E-15

 PERCENT DISCREPANCY IS DIFFERENCE BETWEEN IN-OUT MINUS CHANGE IN STORAGE
 DIVIDED BY THE AVERAGE OF IN AND OUT TIMES 100

 PERCENT DISCREPANCY =           0.00     PERCENT DISCREPANCY =           0.00






1
  VOLUMETRIC BUDGET FOR AGRICULTURAL FIELDS AT  END OF TIME STEP   30, STRESS PERIOD  43
  ------------------------------------------------------------------------------

     CUMULATIVE VOLUMES      L**3       RATES FOR THIS TIME STEP      L**3/T
     ------------------                 ------------------------

           IN:                                      IN:
           ---                                      ---
           AG WELLS      =   620217664.0000             AG WELLS      =           5.1534
      DIVERSION SEGMENTS =   666449536.0000        DIVERSION SEGMENTS =          17.3163
           GW IRRIGATION =           0.0000             GW IRRIGATION =           0.0000
           SW IRRIGATION =           0.0000             SW IRRIGATION =           0.0000
        SYSTEM LOSSES GW =           0.0000          SYSTEM LOSSES GW =           0.0000
        SYSTEM LOSSES SW =           0.0000          SYSTEM LOSSES SW =           0.0000

                TOTAL IN =  1286667264.0000                  TOTAL IN =          22.4697

          OUT:                                     OUT:
          ----                                     ----
           AG WELLS      =           0.0000             AG WELLS      =           0.0000
      DIVERSION SEGMENTS =           0.0000        DIVERSION SEGMENTS =           0.0000
           GW IRRIGATION =   620217664.0000             GW IRRIGATION =           5.1534
           SW IRRIGATION =   666461184.0000             SW IRRIGATION =          17.3166
        SYSTEM LOSSES GW =           0.0000          SYSTEM LOSSES GW =           0.0000
        SYSTEM LOSSES SW =           0.0000          SYSTEM LOSSES SW =           0.0000

               TOTAL OUT =  1286678784.0000                 TOTAL OUT =          22.4700

                IN - OUT =      -11520.0000                  IN - OUT =      -3.4523E-04

     PERCENT DISCREPANCY =          -0.00         PERCENT DISCREPANCY =          -0.00



1
  VOLUMETRIC BUDGET FOR ENTIRE MODEL AT END OF TIME STEP   30, STRESS PERIOD  43
  ------------------------------------------------------------------------------

     CUMULATIVE VOLUMES      L**3       RATES FOR THIS TIME STEP      L**3/T
     ------------------                 ------------------------

           IN:                                      IN:
           ---                                      ---
             STORAGE     =   925921024.0000               STORAGE     =           3.7761
       CONSTANT HEAD     =           0.0000         CONSTANT HEAD     =           0.0000
     HEAD DEP BOUNDS     =    31886798.0000       HEAD DEP BOUNDS     =           0.2895
      STREAM LEAKAGE     =  1312436608.0000        STREAM LEAKAGE     =          12.2140
        UZF RECHARGE     =       73223.9531          UZF RECHARGE     =           0.0000
               GW ET     =           0.0000                 GW ET     =           0.0000
     SURFACE LEAKAGE     =           0.0000       SURFACE LEAKAGE     =           0.0000
           AG WELLS      =           0.0000             AG WELLS      =           0.0000

                TOTAL IN =  2270317568.0000                  TOTAL IN =          16.2796

          OUT:                                     OUT:
          ----                                     ----
             STORAGE     =   508547744.0000               STORAGE     =           0.9791
       CONSTANT HEAD     =           0.0000         CONSTANT HEAD     =           0.0000
     HEAD DEP BOUNDS     =    31827300.0000       HEAD DEP BOUNDS     =           0.2869
      STREAM LEAKAGE     =  1109744128.0000        STREAM LEAKAGE     =           9.8601
        UZF RECHARGE     =           0.0000          UZF RECHARGE     =           0.0000
               GW ET     =           0.0000                 GW ET     =           0.0000
     SURFACE LEAKAGE     =           0.0000       SURFACE LEAKAGE     =           0.0000
           AG WELLS      =   620217664.0000             AG WELLS      =           5.1534

               TOTAL OUT =  2270336768.0000                 TOTAL OUT =          16.2795

                IN - OUT =      -19200.0000                  IN - OUT =       9.5367E-05

     PERCENT DISCREPANCY =          -0.00         PERCENT DISCREPANCY =           0.00






         TIME SUMMARY AT END OF TIME STEP   30 IN STRESS PERIOD   43
                    SECONDS     MINUTES      HOURS       DAYS        YEARS
                    -----------------------------------------------------------
   TIME STEP LENGTH  87667.      1461.1      24.352      1.0147     2.77799E-03
 STRESS PERIOD TIME 2.63000E+06  43833.      730.56      30.440     8.33397E-02
         TOTAL TIME 1.10545E+08 1.84242E+06  30707.      1279.5      3.5030    
1
1
                            STRESS PERIOD NO.   44, LENGTH =   2630000.    
                            -----------------------------------------------

                              NUMBER OF TIME STEPS =    30

                               MULTIPLIER FOR DELT =     1.000

                            INITIAL TIME STEP SIZE =   87666.66    

 REUSING NON-PARAMETER GHB CELLS FROM LAST STRESS PERIOD

      2 GHB CELLS

 REUSING STREAM SEGMENT DATA FROM LAST STRESS PERIOD



            AREAL INFILTRATION RATE
 READING ON UNIT   19 WITH FORMAT: (FREE)              

            1           2           3           4           5           6           7           8           9          10
 ........................................................................................................................
   1   1.0000E-10  2.0000E-10   0.000       0.000       0.000       0.000       0.000       0.000       0.000       0.000    
   2   2.0000E-10  1.0000E-10  2.0000E-10   0.000       0.000      8.0000E-10  8.0000E-10  5.0000E-10   0.000       0.000    
   3    0.000      5.0000E-10  1.0000E-10  1.0000E-10  8.0000E-10  8.0000E-10  5.0000E-10  5.0000E-10   0.000       0.000    
   4   8.0000E-10  5.0000E-10  1.0000E-10  1.0000E-10  1.0000E-10  1.0000E-10  1.0000E-10  1.0000E-10  2.0000E-10   0.000    
   5   8.0000E-10  5.0000E-10  1.0000E-10  1.0000E-10  1.0000E-10  1.0000E-10  1.0000E-10  1.0000E-10  1.0000E-10  1.0000E-10
   6   8.0000E-10  5.0000E-10  5.0000E-10  2.0000E-10  2.0000E-10  1.0000E-10  1.0000E-10  1.0000E-10  1.0000E-10  5.0000E-10
   7   8.0000E-10  5.0000E-10  5.0000E-10  2.0000E-10  2.0000E-10  1.0000E-10  1.0000E-10  2.0000E-10  2.0000E-10   0.000    
   8    0.000      5.0000E-10  5.0000E-10  2.0000E-10  2.0000E-10  1.0000E-10  1.0000E-10  2.0000E-10  5.0000E-10   0.000    
   9    0.000      5.0000E-10  5.0000E-10  2.0000E-10  2.0000E-10  1.0000E-10  1.0000E-10  2.0000E-10  5.0000E-10   0.000    
  10    0.000      5.0000E-10  5.0000E-10  2.0000E-10  2.0000E-10  1.0000E-10  1.0000E-10  2.0000E-10  5.0000E-10  8.0000E-10
  11    0.000      1.0000E-10  1.0000E-10  1.0000E-10  1.0000E-10  1.0000E-10  1.0000E-10  2.0000E-10  5.0000E-10   0.000    
  12   1.0000E-10  1.0000E-10  1.0000E-10  1.0000E-10  1.0000E-10  1.0000E-10  1.0000E-10  1.0000E-10  2.0000E-10   0.000    
  13   1.0000E-10  1.0000E-10  2.0000E-10  2.0000E-10  2.0000E-10  2.0000E-10  2.0000E-10  1.0000E-10  1.0000E-10   0.000    
  14    0.000      2.0000E-10  5.0000E-10  5.0000E-10  5.0000E-10  5.0000E-10  5.0000E-10  2.0000E-10  1.0000E-10   0.000    
  15    0.000       0.000      8.0000E-10  8.0000E-10  8.0000E-10  8.0000E-10   0.000       0.000       0.000       0.000    

                  ET RATE =  4.000000E-07

 USING ET EXTINCTION DEPTH FROM PREVIOUS STRESS PERIOD. CURRENT PERIOD IS:      44

 USING EXTINCTION WATER CONTENT FROM PREVIOUS STRESS PERIOD. CURRENT PERIOD IS:      44

 USING AIR ENTRY PRESSURE FROM PREVIOUS STRESS PERIOD. CURRENT PERIOD IS:      44

 USING ROOT PRESSURE HEAD FROM PREVIOUS STRESS PERIOD. CURRENT PERIOD IS:      44

 USING ROOT ACTIVITY FROM PREVIOUS STRESS PERIOD. CURRENT PERIOD IS:      44

 PROCESSING AG STRESS PERIOD DATA

 READING AG STRESS PERIOD DATA

 READING IRRIGATION SEGMENT

 READING IRRIGATION WELL

 READING SUPPLEMENTAL WELL

 END PROCESSING AG STRESS PERIOD DATA OPTIONS
 
 SOLVING FOR HEAD 
                                                   Max.-Head-Change                         Max.-Flux-Residual
  Residual-Control   Outer-Iter.   Inner-Iter.     Column Row Layer    Maximum-Head-Change  Column Row Layer    Maximum-Flux-Residual          L2-NORM 
          0                 1           2             5    8     1       0.1027459693E-01       5    8    1         0.5534036538E+00      0.1249427955E+01
          0                 2           2             4    7     1      -0.2657322713E+00       5    8    1        -0.1427791679E+02      0.3495866214E+02
          0                 3           2             4    7     1       0.1809346925E-01       5    6    1         0.9992420648E+00      0.2444023198E+01
          0                 4           2             4    7     1      -0.7199581566E-03       5    6    1        -0.4085246307E-01      0.9995917116E-01
          0                 5           1             4    7     1       0.8877392937E-05       4    7    1         0.5174724736E-03      0.1271763460E-02

    ------------------------------------------------
       NWT REQUIRED            5 OUTER ITERATIONS 
       AND A TOTAL OF          9 INNER ITERATIONS.
    ------------------------------------------------

 NO OUTPUT CONTROL FOR STRESS PERIOD   44   TIME STEP    1
 
 SOLVING FOR HEAD 
                                                   Max.-Head-Change                         Max.-Flux-Residual
  Residual-Control   Outer-Iter.   Inner-Iter.     Column Row Layer    Maximum-Head-Change  Column Row Layer    Maximum-Flux-Residual          L2-NORM 
          0                 1           2             5    8     1       0.1736527524E-01       5    8    1         0.9437184754E+00      0.2090485994E+01
          0                 2           2             4    7     1      -0.4687418502E-01       5    8    1        -0.2562425629E+01      0.6264788062E+01
          0                 3           2             4    7     1      -0.4507716077E-02       4    7    1        -0.2420103838E+00      0.5908273826E+00
          0                 4           2             4    7     1       0.6116639238E-02       4    7    1         0.3374772858E+00      0.8263845051E+00
          0                 5           2             4    7     1      -0.1984688034E-02       4    7    1        -0.1125530045E+00      0.2756786172E+00
          0                 6           2             4    7     1      -0.1598789359E-02       5    8    1        -0.9066938057E-01      0.2220920312E+00
          0                 7           2             4    7     1      -0.1692606622E-02       5    8    1        -0.9598818111E-01      0.2351210132E+00
          0                 8           2             4    7     1      -0.1640423938E-01       5    8    1        -0.9302706175E+00      0.2278687177E+01
          0                 9           2             4    7     1       0.2028986227E-03       4    7    1         0.1182497982E-01      0.2896851049E-01
          0                10           1             4    7     1       0.2976320942E-05       5    8    1         0.1737513942E-03      0.4260792881E-03

    ------------------------------------------------
       NWT REQUIRED           10 OUTER ITERATIONS 
       AND A TOTAL OF         19 INNER ITERATIONS.
    ------------------------------------------------

 NO OUTPUT CONTROL FOR STRESS PERIOD   44   TIME STEP    2
 
 SOLVING FOR HEAD 
                                                   Max.-Head-Change                         Max.-Flux-Residual
  Residual-Control   Outer-Iter.   Inner-Iter.     Column Row Layer    Maximum-Head-Change  Column Row Layer    Maximum-Flux-Residual          L2-NORM 
          0                 1           2             5    8     1       0.1860224997E-01       5    8    1         0.1011410671E+01      0.2233211103E+01
          0                 2           2             4    7     1      -0.1141955660E+00       5    8    1        -0.6179866026E+01      0.1510486371E+02
          0                 3           2             4    7     1       0.9988778226E-02       5    8    1         0.5545790600E+00      0.1355831553E+01
          0                 4           2             4    7     1      -0.1442140003E-01       5    8    1        -0.8179897060E+00      0.2003518988E+01
          0                 5           2             4    7     1       0.1778207770E-03       4    7    1         0.1036374737E-01      0.2539221302E-01
          0                 6           1             4    7     1       0.2615251477E-05       5    8    1         0.1527096003E-03      0.3744707750E-03

    ------------------------------------------------
       NWT REQUIRED            6 OUTER ITERATIONS 
       AND A TOTAL OF         11 INNER ITERATIONS.
    ------------------------------------------------

 NO OUTPUT CONTROL FOR STRESS PERIOD   44   TIME STEP    3
 
 SOLVING FOR HEAD 
                                                   Max.-Head-Change                         Max.-Flux-Residual
  Residual-Control   Outer-Iter.   Inner-Iter.     Column Row Layer    Maximum-Head-Change  Column Row Layer    Maximum-Flux-Residual          L2-NORM 
          0                 1           2             5    8     1       0.2132927213E-01       5    8    1         0.1161120348E+01      0.2539439430E+01
          0                 2           2             4    7     1      -0.1167108043E+00       5    8    1        -0.6325544118E+01      0.1545026260E+02
          0                 3           2             4    7     1       0.8103244025E-02       5    8    1         0.4512984006E+00      0.1102294911E+01
          0                 4           2             4    7     1      -0.1589058940E-01       5    8    1        -0.9013403530E+00      0.2207651685E+01
          0                 5           2             4    7     1       0.1959362328E-03       4    7    1         0.1141954362E-01      0.2797898489E-01
          0                 6           1             4    7     1       0.2881679564E-05       5    8    1         0.1682670770E-03      0.4126096371E-03

    ------------------------------------------------
       NWT REQUIRED            6 OUTER ITERATIONS 
       AND A TOTAL OF         11 INNER ITERATIONS.
    ------------------------------------------------

 NO OUTPUT CONTROL FOR STRESS PERIOD   44   TIME STEP    4
 
 SOLVING FOR HEAD 
                                                   Max.-Head-Change                         Max.-Flux-Residual
  Residual-Control   Outer-Iter.   Inner-Iter.     Column Row Layer    Maximum-Head-Change  Column Row Layer    Maximum-Flux-Residual          L2-NORM 
          0                 1           2             5    8     1       0.2408547204E-01       5    8    1         0.1312336146E+01      0.2857206030E+01
          0                 2           2             4    7     1      -0.1170275980E+00       5    8    1        -0.6353026179E+01      0.1550682385E+02
          0                 3           2             4    7     1       0.7978077882E-02       5    8    1         0.4470362605E+00      0.1087234355E+01
          0                 4           2             4    7     1      -0.1593458813E-01       5    8    1        -0.9039436846E+00      0.2213836782E+01
          0                 5           2             4    7     1       0.1964787507E-03       4    7    1         0.1145114677E-01      0.2805740583E-01
          0                 6           1             4    7     1       0.2889658798E-05       5    8    1         0.1687770909E-03      0.4137816133E-03

    ------------------------------------------------
       NWT REQUIRED            6 OUTER ITERATIONS 
       AND A TOTAL OF         11 INNER ITERATIONS.
    ------------------------------------------------

 NO OUTPUT CONTROL FOR STRESS PERIOD   44   TIME STEP    5
 
 SOLVING FOR HEAD 
                                                   Max.-Head-Change                         Max.-Flux-Residual
  Residual-Control   Outer-Iter.   Inner-Iter.     Column Row Layer    Maximum-Head-Change  Column Row Layer    Maximum-Flux-Residual          L2-NORM 
          0                 1           2             5    8     1       0.2671379158E-01       5    8    1         0.1458372947E+01      0.3159171921E+01
          0                 2           2             4    7     1      -0.1171980432E+00       5    8    1        -0.6371954614E+01      0.1554052074E+02
          0                 3           2             4    7     1       0.4421530698E-02       5    8    1         0.2496179646E+00      0.6074886731E+00
          0                 4           2             4    7     1      -0.1573516310E-01       5    8    1        -0.8925861613E+00      0.2186142760E+01
          0                 5           2             4    7     1       0.1926209716E-03       4    7    1         0.1122628263E-01      0.2750670909E-01
          0                 6           1             4    7     1       0.2832921363E-05       5    8    1         0.1654550617E-03      0.4056555241E-03

    ------------------------------------------------
       NWT REQUIRED            6 OUTER ITERATIONS 
       AND A TOTAL OF         11 INNER ITERATIONS.
    ------------------------------------------------

 NO OUTPUT CONTROL FOR STRESS PERIOD   44   TIME STEP    6
 
 SOLVING FOR HEAD 
                                                   Max.-Head-Change                         Max.-Flux-Residual
  Residual-Control   Outer-Iter.   Inner-Iter.     Column Row Layer    Maximum-Head-Change  Column Row Layer    Maximum-Flux-Residual          L2-NORM 
          0                 1           2             5    8     1       0.2938929344E-01       5    8    1         0.1605270549E+01      0.3472051450E+01
          0                 2           2             4    7     1      -0.1210198633E+00       5    8    1        -0.6586688890E+01      0.1605533077E+02
          0                 3           2             4    7     1       0.7437041045E-02       5    8    1         0.4166683823E+00      0.1015153201E+01
          0                 4           2             4    7     1      -0.1578950335E-01       5    8    1        -0.8956922100E+00      0.2193723642E+01
          0                 5           2             4    7     1       0.1933073597E-03       4    7    1         0.1126625812E-01      0.2760519351E-01
          0                 6           1             4    7     1       0.2843016131E-05       5    8    1         0.1660498233E-03      0.4071110063E-03

    ------------------------------------------------
       NWT REQUIRED            6 OUTER ITERATIONS 
       AND A TOTAL OF         11 INNER ITERATIONS.
    ------------------------------------------------

 NO OUTPUT CONTROL FOR STRESS PERIOD   44   TIME STEP    7
 
 SOLVING FOR HEAD 
                                                   Max.-Head-Change                         Max.-Flux-Residual
  Residual-Control   Outer-Iter.   Inner-Iter.     Column Row Layer    Maximum-Head-Change  Column Row Layer    Maximum-Flux-Residual          L2-NORM 
          0                 1           2             5    8     1       0.3194779028E-01       5    8    1         0.1745617612E+01      0.3777856250E+01
          0                 2           2             4    7     1      -0.1220123367E+00       5    8    1        -0.6648743355E+01      0.1619807590E+02
          0                 3           2             4    7     1       0.8307563913E-02       5    8    1         0.4653175327E+00      0.1133556925E+01
          0                 4           2             4    7     1      -0.1575865310E-01       5    8    1        -0.8939663214E+00      0.2189469433E+01
          0                 5           2             4    7     1       0.1929678711E-03       4    7    1         0.1124644904E-01      0.2755704921E-01
          0                 6           1             4    7     1       0.2838022907E-05       5    8    1         0.1657622688E-03      0.4064029880E-03

    ------------------------------------------------
       NWT REQUIRED            6 OUTER ITERATIONS 
       AND A TOTAL OF         11 INNER ITERATIONS.
    ------------------------------------------------

 NO OUTPUT CONTROL FOR STRESS PERIOD   44   TIME STEP    8
 
 SOLVING FOR HEAD 
                                                   Max.-Head-Change                         Max.-Flux-Residual
  Residual-Control   Outer-Iter.   Inner-Iter.     Column Row Layer    Maximum-Head-Change  Column Row Layer    Maximum-Flux-Residual          L2-NORM 
          0                 1           2             5    8     1       0.3437367858E-01       5    8    1         0.1878570894E+01      0.4072067766E+01
          0                 2           2             4    7     1      -0.1221816340E+00       5    8    1        -0.6665747865E+01      0.1623159101E+02
          0                 3           2             4    7     1       0.8319084493E-02       5    8    1         0.4665124499E+00      0.1135910799E+01
          0                 4           2             4    7     1      -0.1569377447E-01       5    8    1        -0.8903087546E+00      0.2180485795E+01
          0                 5           2             4    7     1       0.1921760804E-03       4    7    1         0.1120028084E-01      0.2744424658E-01
          0                 6           1             4    7     1       0.2826378398E-05       5    8    1         0.1650855584E-03      0.4047318248E-03

    ------------------------------------------------
       NWT REQUIRED            6 OUTER ITERATIONS 
       AND A TOTAL OF         11 INNER ITERATIONS.
    ------------------------------------------------

 NO OUTPUT CONTROL FOR STRESS PERIOD   44   TIME STEP    9
 
 SOLVING FOR HEAD 
                                                   Max.-Head-Change                         Max.-Flux-Residual
  Residual-Control   Outer-Iter.   Inner-Iter.     Column Row Layer    Maximum-Head-Change  Column Row Layer    Maximum-Flux-Residual          L2-NORM 
          0                 1           2             5    8     1       0.3667586608E-01       5    8    1         0.2004632638E+01      0.4355001315E+01
          0                 2           2             4    7     1      -0.1223528478E+00       5    8    1        -0.6682053678E+01      0.1626431437E+02
          0                 3           2             4    7     1       0.8330735505E-02       5    8    1         0.4676581116E+00      0.1138209856E+01
          0                 4           2             4    7     1      -0.1562905311E-01       5    8    1        -0.8866577226E+00      0.2171520850E+01
          0                 5           2             4    7     1       0.1913698672E-03       4    7    1         0.1115327190E-01      0.2732935362E-01
          0                 6           1             4    7     1       0.2814521395E-05       5    8    1         0.1643961020E-03      0.4030340232E-03

    ------------------------------------------------
       NWT REQUIRED            6 OUTER ITERATIONS 
       AND A TOTAL OF         11 INNER ITERATIONS.
    ------------------------------------------------

 NO OUTPUT CONTROL FOR STRESS PERIOD   44   TIME STEP   10
 
 SOLVING FOR HEAD 
                                                   Max.-Head-Change                         Max.-Flux-Residual
  Residual-Control   Outer-Iter.   Inner-Iter.     Column Row Layer    Maximum-Head-Change  Column Row Layer    Maximum-Flux-Residual          L2-NORM 
          0                 1           2             5    8     1       0.3886257596E-01       5    8    1         0.2124264678E+01      0.4627063711E+01
          0                 2           2             4    7     1      -0.1225257272E+00       5    8    1        -0.6697707932E+01      0.1629628145E+02
          0                 3           2             4    7     1       0.8342525796E-02       5    8    1         0.4687592730E+00      0.1140459888E+01
          0                 4           2             4    7     1      -0.1556454814E-01       5    8    1        -0.8830167600E+00      0.2162583027E+01
          0                 5           2             4    7     1       0.1906154073E-03       4    7    1         0.1110927939E-01      0.2722181648E-01
          0                 6           1             4    7     1       0.2803425093E-05       5    8    1         0.1637506743E-03      0.4014475082E-03

    ------------------------------------------------
       NWT REQUIRED            6 OUTER ITERATIONS 
       AND A TOTAL OF         11 INNER ITERATIONS.
    ------------------------------------------------

 NO OUTPUT CONTROL FOR STRESS PERIOD   44   TIME STEP   11
 
 SOLVING FOR HEAD 
                                                   Max.-Head-Change                         Max.-Flux-Residual
  Residual-Control   Outer-Iter.   Inner-Iter.     Column Row Layer    Maximum-Head-Change  Column Row Layer    Maximum-Flux-Residual          L2-NORM 
          0                 1           2             5    8     1       0.4094152234E-01       5    8    1         0.2237901190E+01      0.4888701131E+01
          0                 2           2             4    7     1      -0.1226999595E+00       5    8    1        -0.6712752140E+01      0.1632751721E+02
          0                 3           2             4    7     1       0.8354382219E-02       5    8    1         0.4698160030E+00      0.1142655211E+01
          0                 4           2             4    7     1      -0.1550018927E-01       5    8    1        -0.8793820574E+00      0.2153662751E+01
          0                 5           2             4    7     1       0.1898382064E-03       4    7    1         0.1106395896E-01      0.2711100630E-01
          0                 6           1             4    7     1       0.2791994535E-05       5    8    1         0.1630854099E-03      0.3998116273E-03

    ------------------------------------------------
       NWT REQUIRED            6 OUTER ITERATIONS 
       AND A TOTAL OF         11 INNER ITERATIONS.
    ------------------------------------------------

 NO OUTPUT CONTROL FOR STRESS PERIOD   44   TIME STEP   12
 
 SOLVING FOR HEAD 
                                                   Max.-Head-Change                         Max.-Flux-Residual
  Residual-Control   Outer-Iter.   Inner-Iter.     Column Row Layer    Maximum-Head-Change  Column Row Layer    Maximum-Flux-Residual          L2-NORM 
          0                 1           2             5    8     1       0.4291969138E-01       5    8    1         0.2345934359E+01      0.5140407943E+01
          0                 2           2             4    7     1      -0.1228753527E+00       5    8    1        -0.6727226951E+01      0.1635805680E+02
          0                 3           2             4    7     1       0.8366317631E-02       5    8    1         0.4708325986E+00      0.1144801622E+01
          0                 4           2             4    7     1      -0.1543599375E-01       5    8    1        -0.8757547463E+00      0.2144762601E+01
          0                 5           2             4    7     1       0.1890630192E-03       4    7    1         0.1101875500E-01      0.2700045852E-01
          0                 6           1             4    7     1       0.2780593662E-05       5    8    1         0.1624215740E-03      0.3981830503E-03

    ------------------------------------------------
       NWT REQUIRED            6 OUTER ITERATIONS 
       AND A TOTAL OF         11 INNER ITERATIONS.
    ------------------------------------------------

 NO OUTPUT CONTROL FOR STRESS PERIOD   44   TIME STEP   13
 
 SOLVING FOR HEAD 
                                                   Max.-Head-Change                         Max.-Flux-Residual
  Residual-Control   Outer-Iter.   Inner-Iter.     Column Row Layer    Maximum-Head-Change  Column Row Layer    Maximum-Flux-Residual          L2-NORM 
          0                 1           2             5    8     1       0.4480352386E-01       5    8    1         0.2448726404E+01      0.5382627516E+01
          0                 2           2             4    7     1      -0.1230516763E+00       5    8    1        -0.6741168589E+01      0.1638792558E+02
          0                 3           2             4    7     1       0.8378307702E-02       5    8    1         0.4718111384E+00      0.1146896299E+01
          0                 4           2             4    7     1      -0.1537195213E-01       5    8    1        -0.8721344368E+00      0.2135881214E+01
          0                 5           2             4    7     1       0.1882897296E-03       4    7    1         0.1097366174E-01      0.2689016931E-01
          0                 6           1             4    7     1       0.2769220680E-05       5    8    1         0.1617590808E-03      0.3965477988E-03

    ------------------------------------------------
       NWT REQUIRED            6 OUTER ITERATIONS 
       AND A TOTAL OF         11 INNER ITERATIONS.
    ------------------------------------------------

 NO OUTPUT CONTROL FOR STRESS PERIOD   44   TIME STEP   14
 
 SOLVING FOR HEAD 
                                                   Max.-Head-Change                         Max.-Flux-Residual
  Residual-Control   Outer-Iter.   Inner-Iter.     Column Row Layer    Maximum-Head-Change  Column Row Layer    Maximum-Flux-Residual          L2-NORM 
          0                 1           2             5    8     1       0.4659926241E-01       5    8    1         0.2546626943E+01      0.5615862364E+01
          0                 2           2             4    7     1      -0.1232286915E+00       5    8    1        -0.6754612014E+01      0.1641715326E+02
          0                 3           2             4    7     1       0.8390396676E-02       5    8    1         0.4727574259E+00      0.1148951459E+01
          0                 4           2             4    7     1      -0.1530812493E-01       5    8    1        -0.8685247058E+00      0.2127027350E+01
          0                 5           2             4    7     1       0.1875109026E-03       4    7    1         0.1092824589E-01      0.2677907041E-01
          0                 6           1             4    7     1       0.2757766487E-05       5    8    1         0.1610915861E-03      0.3949112346E-03

    ------------------------------------------------
       NWT REQUIRED            6 OUTER ITERATIONS 
       AND A TOTAL OF         11 INNER ITERATIONS.
    ------------------------------------------------

 NO OUTPUT CONTROL FOR STRESS PERIOD   44   TIME STEP   15
 
 SOLVING FOR HEAD 
                                                   Max.-Head-Change                         Max.-Flux-Residual
  Residual-Control   Outer-Iter.   Inner-Iter.     Column Row Layer    Maximum-Head-Change  Column Row Layer    Maximum-Flux-Residual          L2-NORM 
          0                 1           2             5    8     1       0.4831224767E-01       5    8    1         0.2639936177E+01      0.5840526720E+01
          0                 2           2             4    7     1      -0.1234062405E+00       5    8    1        -0.6767587250E+01      0.1644576280E+02
          0                 3           2             4    7     1       0.8402487369E-02       5    8    1         0.4736688110E+00      0.1150958700E+01
          0                 4           2             4    7     1      -0.1524440733E-01       5    8    1        -0.8649197246E+00      0.2118186703E+01
          0                 5           2             4    7     1       0.1867252461E-03       4    7    1         0.1088243214E-01      0.2666697615E-01
          0                 6           1             4    7     1       0.2746211479E-05       5    8    1         0.1604179865E-03      0.3932550988E-03

    ------------------------------------------------
       NWT REQUIRED            6 OUTER ITERATIONS 
       AND A TOTAL OF         11 INNER ITERATIONS.
    ------------------------------------------------

 NO OUTPUT CONTROL FOR STRESS PERIOD   44   TIME STEP   16
 
 SOLVING FOR HEAD 
                                                   Max.-Head-Change                         Max.-Flux-Residual
  Residual-Control   Outer-Iter.   Inner-Iter.     Column Row Layer    Maximum-Head-Change  Column Row Layer    Maximum-Flux-Residual          L2-NORM 
          0                 1           2             5    8     1       0.4994784044E-01       5    8    1         0.2728954482E+01      0.6057064739E+01
          0                 2           2             4    7     1      -0.1235840947E+00       5    8    1        -0.6780123379E+01      0.1647377694E+02
          0                 3           2             4    7     1       0.8414590161E-02       5    8    1         0.4745478165E+00      0.1152921013E+01
          0                 4           2             4    7     1      -0.1518088375E-01       5    8    1        -0.8613242729E+00      0.2109371025E+01
          0                 5           2             4    7     1       0.1859747058E-03       4    7    1         0.1083866537E-01      0.2655987979E-01
          0                 6           1             4    7     1       0.2735173425E-05       5    8    1         0.1597744624E-03      0.3916737813E-03

    ------------------------------------------------
       NWT REQUIRED            6 OUTER ITERATIONS 
       AND A TOTAL OF         11 INNER ITERATIONS.
    ------------------------------------------------

 NO OUTPUT CONTROL FOR STRESS PERIOD   44   TIME STEP   17
 
 SOLVING FOR HEAD 
                                                   Max.-Head-Change                         Max.-Flux-Residual
  Residual-Control   Outer-Iter.   Inner-Iter.     Column Row Layer    Maximum-Head-Change  Column Row Layer    Maximum-Flux-Residual          L2-NORM 
          0                 1           2             5    8     1       0.5151072734E-01       5    8    1         0.2813944157E+01      0.6265882981E+01
          0                 2           2             5    7     1      -0.1237632497E+00       5    8    1        -0.6792247585E+01      0.1650122125E+02
          0                 3           2             5    7     1       0.8426790523E-02       5    8    1         0.4753974371E+00      0.1154841891E+01
          0                 4           2             4    7     1      -0.1511752048E-01       5    8    1        -0.8577366262E+00      0.2100575811E+01
          0                 5           2             4    7     1       0.1852179612E-03       4    7    1         0.1079453716E-01      0.2645188266E-01
          0                 6           1             4    7     1       0.2724043518E-05       5    8    1         0.1591253676E-03      0.3900795865E-03

    ------------------------------------------------
       NWT REQUIRED            6 OUTER ITERATIONS 
       AND A TOTAL OF         11 INNER ITERATIONS.
    ------------------------------------------------

 NO OUTPUT CONTROL FOR STRESS PERIOD   44   TIME STEP   18
 
 SOLVING FOR HEAD 
                                                   Max.-Head-Change                         Max.-Flux-Residual
  Residual-Control   Outer-Iter.   Inner-Iter.     Column Row Layer    Maximum-Head-Change  Column Row Layer    Maximum-Flux-Residual          L2-NORM 
          0                 1           2             5    8     1       0.5300538380E-01       5    8    1         0.2895156065E+01      0.6467367803E+01
          0                 2           2             5    7     1      -0.1239642365E+00       5    8    1        -0.6803985433E+01      0.1652811893E+02
          0                 3           2             5    7     1       0.8440468449E-02       5    8    1         0.4762199130E+00      0.1156724507E+01
          0                 4           2             4    7     1      -0.1505430023E-01       5    8    1        -0.8541559658E+00      0.2091798897E+01
          0                 5           2             4    7     1       0.1844547993E-03       4    7    1         0.1075003514E-01      0.2634295101E-01
          0                 6           1             4    7     1       0.2712819405E-05       5    8    1         0.1584705608E-03      0.3884757803E-03

    ------------------------------------------------
       NWT REQUIRED            6 OUTER ITERATIONS 
       AND A TOTAL OF         11 INNER ITERATIONS.
    ------------------------------------------------

 NO OUTPUT CONTROL FOR STRESS PERIOD   44   TIME STEP   19
 
 SOLVING FOR HEAD 
                                                   Max.-Head-Change                         Max.-Flux-Residual
  Residual-Control   Outer-Iter.   Inner-Iter.     Column Row Layer    Maximum-Head-Change  Column Row Layer    Maximum-Flux-Residual          L2-NORM 
          0                 1           2             5    8     1       0.5443610076E-01       5    8    1         0.2972830067E+01      0.6661889838E+01
          0                 2           2             5    7     1      -0.1241620740E+00       5    8    1        -0.6815360909E+01      0.1655449041E+02
          0                 3           2             5    7     1       0.8453966116E-02       5    8    1         0.4770188376E+00      0.1158574922E+01
          0                 4           2             4    7     1      -0.1499126594E-01       5    8    1        -0.8505848236E+00      0.2083046378E+01
          0                 5           2             4    7     1       0.1836939302E-03       4    7    1         0.1070566703E-01      0.2623433191E-01
          0                 6           1             4    7     1       0.2701629122E-05       5    8    1         0.1578175381E-03      0.3868694062E-03

    ------------------------------------------------
       NWT REQUIRED            6 OUTER ITERATIONS 
       AND A TOTAL OF         11 INNER ITERATIONS.
    ------------------------------------------------

 NO OUTPUT CONTROL FOR STRESS PERIOD   44   TIME STEP   20
 
 SOLVING FOR HEAD 
                                                   Max.-Head-Change                         Max.-Flux-Residual
  Residual-Control   Outer-Iter.   Inner-Iter.     Column Row Layer    Maximum-Head-Change  Column Row Layer    Maximum-Flux-Residual          L2-NORM 
          0                 1           2             5    8     1       0.5580657654E-01       5    8    1         0.3047172999E+01      0.6849792177E+01
          0                 2           2             5    7     1      -0.1243567920E+00       5    8    1        -0.6826393742E+01      0.1658035434E+02
          0                 3           2             5    7     1       0.8467225674E-02       5    8    1         0.4777912250E+00      0.1160385298E+01
          0                 4           2             4    7     1      -0.1492836438E-01       5    8    1        -0.8470201161E+00      0.2074310900E+01
          0                 5           2             4    7     1       0.1829265168E-03       4    7    1         0.1066091772E-01      0.2612476645E-01
          0                 6           1             4    7     1       0.2690342616E-05       5    8    1         0.1571589501E-03      0.3852526173E-03

    ------------------------------------------------
       NWT REQUIRED            6 OUTER ITERATIONS 
       AND A TOTAL OF         11 INNER ITERATIONS.
    ------------------------------------------------

 NO OUTPUT CONTROL FOR STRESS PERIOD   44   TIME STEP   21
 
 SOLVING FOR HEAD 
                                                   Max.-Head-Change                         Max.-Flux-Residual
  Residual-Control   Outer-Iter.   Inner-Iter.     Column Row Layer    Maximum-Head-Change  Column Row Layer    Maximum-Flux-Residual          L2-NORM 
          0                 1           2             5    8     1       0.5712037740E-01       5    8    1         0.3118384448E+01      0.7031395542E+01
          0                 2           2             5    7     1      -0.1245484399E+00       5    8    1        -0.6837103893E+01      0.1660572812E+02
          0                 3           2             5    7     1       0.8480259048E-02       5    8    1         0.4785399874E+00      0.1162159281E+01
          0                 4           2             4    7     1      -0.1486560385E-01       5    8    1        -0.8434625409E+00      0.2065593796E+01
          0                 5           2             4    7     1       0.1821526606E-03       4    7    1         0.1061579319E-01      0.2601426776E-01
          0                 6           1             4    7     1       0.2678961458E-05       5    8    1         0.1564945753E-03      0.3836266134E-03

    ------------------------------------------------
       NWT REQUIRED            6 OUTER ITERATIONS 
       AND A TOTAL OF         11 INNER ITERATIONS.
    ------------------------------------------------

 NO OUTPUT CONTROL FOR STRESS PERIOD   44   TIME STEP   22
 
 SOLVING FOR HEAD 
                                                   Max.-Head-Change                         Max.-Flux-Residual
  Residual-Control   Outer-Iter.   Inner-Iter.     Column Row Layer    Maximum-Head-Change  Column Row Layer    Maximum-Flux-Residual          L2-NORM 
          0                 1           2             5    8     1       0.5838095668E-01       5    8    1         0.3186657148E+01      0.7207016394E+01
          0                 2           2             5    7     1      -0.1247371260E+00       5    8    1        -0.6847512064E+01      0.1663063467E+02
          0                 3           2             5    7     1       0.8493107822E-02       5    8    1         0.4792685652E+00      0.1163902649E+01
          0                 4           2             4    7     1      -0.1480302757E-01       5    8    1        -0.8399146305E+00      0.2056901161E+01
          0                 5           2             4    7     1       0.1814056197E-03       4    7    1         0.1057223185E-01      0.2590758298E-01
          0                 6           1             4    7     1       0.2667974371E-05       5    8    1         0.1558530712E-03      0.3820489249E-03

    ------------------------------------------------
       NWT REQUIRED            6 OUTER ITERATIONS 
       AND A TOTAL OF         11 INNER ITERATIONS.
    ------------------------------------------------

 NO OUTPUT CONTROL FOR STRESS PERIOD   44   TIME STEP   23
 
 SOLVING FOR HEAD 
                                                   Max.-Head-Change                         Max.-Flux-Residual
  Residual-Control   Outer-Iter.   Inner-Iter.     Column Row Layer    Maximum-Head-Change  Column Row Layer    Maximum-Flux-Residual          L2-NORM 
          0                 1           2             5    8     1       0.5959138445E-01       5    8    1         0.3252162334E+01      0.7376939529E+01
          0                 2           2             5    7     1      -0.1249229110E+00       5    8    1        -0.6857635857E+01      0.1665509173E+02
          0                 3           2             5    7     1       0.8505776129E-02       5    8    1         0.4799781903E+00      0.1165617043E+01
          0                 4           2             4    7     1      -0.1474058473E-01       5    8    1        -0.8363735744E+00      0.2048226041E+01
          0                 5           2             4    7     1       0.1806520437E-03       4    7    1         0.1052828991E-01      0.2579995350E-01
          0                 6           1             4    7     1       0.2656891174E-05       5    8    1         0.1552058270E-03      0.3804604141E-03

    ------------------------------------------------
       NWT REQUIRED            6 OUTER ITERATIONS 
       AND A TOTAL OF         11 INNER ITERATIONS.
    ------------------------------------------------

 NO OUTPUT CONTROL FOR STRESS PERIOD   44   TIME STEP   24
 
 SOLVING FOR HEAD 
                                                   Max.-Head-Change                         Max.-Flux-Residual
  Residual-Control   Outer-Iter.   Inner-Iter.     Column Row Layer    Maximum-Head-Change  Column Row Layer    Maximum-Flux-Residual          L2-NORM 
          0                 1           2             5    8     1       0.6075436855E-01       5    8    1         0.3315051359E+01      0.7541431359E+01
          0                 2           2             5    7     1      -0.1251057813E+00       5    8    1        -0.6867487545E+01      0.1667910816E+02
          0                 3           2             5    7     1       0.8518228840E-02       5    8    1         0.4806678146E+00      0.1167298207E+01
          0                 4           2             4    7     1      -0.1467830718E-01       5    8    1        -0.8328412370E+00      0.2039572941E+01
          0                 5           2             4    7     1       0.1798841424E-03       4    7    1         0.1048351335E-01      0.2569027047E-01
          0                 6           1             4    7     1       0.2645597948E-05       5    8    1         0.1545461910E-03      0.3788456596E-03

    ------------------------------------------------
       NWT REQUIRED            6 OUTER ITERATIONS 
       AND A TOTAL OF         11 INNER ITERATIONS.
    ------------------------------------------------

 NO OUTPUT CONTROL FOR STRESS PERIOD   44   TIME STEP   25
 
 SOLVING FOR HEAD 
                                                   Max.-Head-Change                         Max.-Flux-Residual
  Residual-Control   Outer-Iter.   Inner-Iter.     Column Row Layer    Maximum-Head-Change  Column Row Layer    Maximum-Flux-Residual          L2-NORM 
          0                 1           2             5    8     1       0.6187285257E-01       5    8    1         0.3375488131E+01      0.7700759490E+01
          0                 2           2             5    7     1      -0.1252858887E+00       5    8    1        -0.6877086381E+01      0.1670270763E+02
          0                 3           2             5    7     1       0.8530493397E-02       5    8    1         0.4813397394E+00      0.1168950221E+01
          0                 4           2             4    7     1      -0.1461617025E-01       5    8    1        -0.8293162819E+00      0.2030938519E+01
          0                 5           2             4    7     1       0.1791425194E-03       4    7    1         0.1044026869E-01      0.2558432623E-01
          0                 6           1             4    7     1       0.2634690393E-05       5    8    1         0.1539089776E-03      0.3772795184E-03

    ------------------------------------------------
       NWT REQUIRED            6 OUTER ITERATIONS 
       AND A TOTAL OF         11 INNER ITERATIONS.
    ------------------------------------------------

 NO OUTPUT CONTROL FOR STRESS PERIOD   44   TIME STEP   26
 
 SOLVING FOR HEAD 
                                                   Max.-Head-Change                         Max.-Flux-Residual
  Residual-Control   Outer-Iter.   Inner-Iter.     Column Row Layer    Maximum-Head-Change  Column Row Layer    Maximum-Flux-Residual          L2-NORM 
          0                 1           2             5    8     1       0.6294929196E-01       5    8    1         0.3433609575E+01      0.7855160174E+01
          0                 2           2             5    7     1      -0.1254632375E+00       5    8    1        -0.6886444150E+01      0.1672589986E+02
          0                 3           2             5    7     1       0.8542570086E-02       5    8    1         0.4819947895E+00      0.1170573772E+01
          0                 4           2             4    7     1      -0.1455419045E-01       5    8    1        -0.8257996966E+00      0.2022325140E+01
          0                 5           2             4    7     1       0.1784028338E-03       4    7    1         0.1039713729E-01      0.2547864948E-01
          0                 6           1             4    7     1       0.2599267806E-05       5    8    1         0.1518428210E-03      0.3722323175E-03

    ------------------------------------------------
       NWT REQUIRED            6 OUTER ITERATIONS 
       AND A TOTAL OF         11 INNER ITERATIONS.
    ------------------------------------------------

 NO OUTPUT CONTROL FOR STRESS PERIOD   44   TIME STEP   27
 
 SOLVING FOR HEAD 
                                                   Max.-Head-Change                         Max.-Flux-Residual
  Residual-Control   Outer-Iter.   Inner-Iter.     Column Row Layer    Maximum-Head-Change  Column Row Layer    Maximum-Flux-Residual          L2-NORM 
          0                 1           2             5    8     1       0.6398597475E-01       5    8    1         0.3489543072E+01      0.8004852733E+01
          0                 2           2             5    7     1      -0.1256379290E+00       5    8    1        -0.6895574543E+01      0.1674869122E+02
          0                 3           2             5    7     1       0.8537792137E-02       5    8    1         0.4817045677E+00      0.1169895271E+01
          0                 4           2             4    7     1      -0.1449168893E-01       5    8    1        -0.8222530325E+00      0.2013638574E+01
          0                 5           2             4    7     1       0.1776321709E-03       4    7    1         0.1035220074E-01      0.2536854474E-01
          0                 6           1             4    7     1       0.2612477513E-05       5    8    1         0.1526110452E-03      0.3741081467E-03

    ------------------------------------------------
       NWT REQUIRED            6 OUTER ITERATIONS 
       AND A TOTAL OF         11 INNER ITERATIONS.
    ------------------------------------------------

 NO OUTPUT CONTROL FOR STRESS PERIOD   44   TIME STEP   28
 
 SOLVING FOR HEAD 
                                                   Max.-Head-Change                         Max.-Flux-Residual
  Residual-Control   Outer-Iter.   Inner-Iter.     Column Row Layer    Maximum-Head-Change  Column Row Layer    Maximum-Flux-Residual          L2-NORM 
          0                 1           2             5    8     1       0.6498184214E-01       5    8    1         0.3543436822E+01      0.8143675142E+01
          0                 2           2             5    7     1      -0.1258268100E+00       5    8    1        -0.6905422632E+01      0.1676405170E+02
          0                 3           2             4    7     1      -0.1006881267E-01       4    7    1        -0.5406031704E+00      0.1308412151E+01
          0                 4           2             4    7     1      -0.1418349075E-01       5    8    1        -0.7619736178E+00      0.1865671822E+01
          0                 5           2             4    7     1       0.9650288749E-03       5    8    1         0.5330349854E-01      0.1305039448E+00
          0                 6           1             4    7     1      -0.3841761879E-04       5    8    1        -0.2181555186E-02      0.5341036881E-02

    ------------------------------------------------
       NWT REQUIRED            6 OUTER ITERATIONS 
       AND A TOTAL OF         11 INNER ITERATIONS.
    ------------------------------------------------

 NO OUTPUT CONTROL FOR STRESS PERIOD   44   TIME STEP   29
 
 SOLVING FOR HEAD 
                                                   Max.-Head-Change                         Max.-Flux-Residual
  Residual-Control   Outer-Iter.   Inner-Iter.     Column Row Layer    Maximum-Head-Change  Column Row Layer    Maximum-Flux-Residual          L2-NORM 
          0                 1           2             5    8     1       0.6648777828E-01       5    8    1         0.3625271279E+01      0.8345243651E+01
          0                 2           2             4    7     1      -0.1447604976E+00       5    8    1        -0.7929763509E+01      0.1926989533E+02
          0                 3           2             4    7     1       0.9856970397E-02       5    8    1         0.5550458767E+00      0.1348768998E+01
          0                 4           2             4    7     1      -0.1442068673E-01       5    8    1        -0.8182274606E+00      0.2003772856E+01
          0                 5           2             4    7     1       0.1767648712E-03       4    7    1         0.1030160503E-01      0.2524463861E-01
          0                 6           1             4    7     1       0.2599722143E-05       5    8    1         0.1518661418E-03      0.3722680602E-03

    ------------------------------------------------
       NWT REQUIRED            6 OUTER ITERATIONS 
       AND A TOTAL OF         11 INNER ITERATIONS.
    ------------------------------------------------

 NO OUTPUT CONTROL FOR STRESS PERIOD   44   TIME STEP   30



 STREAM LISTING     PERIOD     44   STEP       30

 LAYER ROW COL. STREAM  RCH.  FLOW INTO     FLOW TO   FLOW OUT OF   OVRLND.     DIRECT     STREAM       STREAM     STREAM     STREAM   STREAMBED  STREAMBED
                SEG.NO.  NO.  STRM. RCH.    AQUIFER    STRM. RCH.    RUNOFF     PRECIP       ET          HEAD       DEPTH      WIDTH   CONDCTNC.   GRADIENT

   1    1    1     1     1    1.3875E+01  1.7894E-01   1.3696E+01  0.000E+00  0.000E+00  0.000E+00  1.09404E+03  9.876E-01  9.972E+00  4.487E-02  1.329E+00
   1    2    2     1     2    1.3696E+01  2.7573E-01   1.3420E+01  0.000E+00  0.000E+00  0.000E+00  1.08904E+03  9.829E-01  9.890E+00  6.923E-02  1.328E+00
   1    3    3     1     3    1.3420E+01  2.3380E-01   1.3186E+01  0.000E+00  0.000E+00  0.000E+00  1.08340E+03  9.775E-01  9.797E+00  5.878E-02  1.326E+00
   1    3    4     1     4    1.3186E+01  2.1419E-01   1.2972E+01  0.000E+00  0.000E+00  0.000E+00  1.07838E+03  9.727E-01  9.714E+00  5.391E-02  1.324E+00
   1    4    5     2     1    1.0972E+01  2.9101E-01   1.0681E+01  0.000E+00  0.000E+00  0.000E+00  1.07266E+03  7.309E-01  1.200E+01  7.800E-02  1.244E+00
   1    5    6     2     2    1.0681E+01  2.2322E-01   1.0458E+01  0.000E+00  0.000E+00  0.000E+00  1.06723E+03  7.204E-01  1.200E+01  6.000E-02  1.240E+00
   1    6    6     2     3    1.0458E+01  2.2267E-01   1.0235E+01  0.000E+00  0.000E+00  0.000E+00  1.06250E+03  7.112E-01  1.200E+01  6.000E-02  1.237E+00
   1    7    6     2     4    1.0235E+01  2.2212E-01   1.0013E+01  0.000E+00  0.000E+00  0.000E+00  1.05778E+03  7.020E-01  1.200E+01  6.000E-02  1.234E+00
   1    8    6     2     5    1.0013E+01  2.2157E-01   9.7913E+00  0.000E+00  0.000E+00  0.000E+00  1.05305E+03  6.928E-01  1.200E+01  6.000E-02  1.231E+00
   1    3    5     3     1    2.0000E+00  2.8252E-01   1.7175E+00  0.000E+00  0.000E+00  0.000E+00  1.07555E+03  1.909E+00  9.636E+00  7.227E-02  1.955E+00
   1    3    6     3     2    1.7175E+00  2.4905E-01   1.4684E+00  0.000E+00  0.000E+00  0.000E+00  1.07264E+03  1.727E+00  8.909E+00  6.682E-02  1.864E+00
   1    3    7     3     3    1.4684E+00  1.9718E-01   1.2712E+00  0.000E+00  0.000E+00  0.000E+00  1.06987E+03  1.555E+00  8.218E+00  5.547E-02  1.777E+00
   1    4    8     3     4    1.2712E+00  2.2567E-01   1.0456E+00  0.000E+00  0.000E+00  0.000E+00  1.06682E+03  1.364E+00  7.455E+00  6.709E-02  1.682E+00
   1    5    8     3     5    1.0456E+00  1.5790E-01   8.8768E-01  0.000E+00  0.000E+00  0.000E+00  1.06362E+03  1.164E+00  6.655E+00  4.991E-02  1.582E+00
   1    6    8     3     6    8.8768E-01  5.5980E-02   8.3170E-01  0.000E+00  0.000E+00  0.000E+00  1.06158E+03  1.036E+00  6.145E+00  1.844E-02  1.518E+00
   1    5   10     4     1    1.0000E+01  9.0919E-02   9.9091E+00  0.000E+00  0.000E+00  0.000E+00  1.07836E+03  6.368E-01  1.000E+01  2.500E-02  1.212E+00
   1    5    9     4     2    9.9091E+00  1.8158E-01   9.7275E+00  0.000E+00  0.000E+00  0.000E+00  1.07154E+03  6.315E-01  1.000E+01  5.000E-02  1.211E+00
   1    6    8     4     3    9.7275E+00  1.2689E-01   9.6006E+00  0.000E+00  0.000E+00  0.000E+00  1.06381E+03  6.256E-01  1.000E+01  3.500E-02  1.209E+00
   1    6    8     5     1    1.0432E+01  2.2686E-01   1.0205E+01  0.000E+00  0.000E+00  0.000E+00  1.05868E+03  6.790E-01  1.542E+01  6.166E-02  1.226E+00
   1    7    7     5     2    1.0205E+01  2.7894E-01   9.9265E+00  0.000E+00  0.000E+00  0.000E+00  1.05417E+03  6.732E-01  1.519E+01  7.594E-02  1.224E+00
   1    8    7     5     3    9.9265E+00  1.9221E-01   9.7343E+00  0.000E+00  0.000E+00  0.000E+00  1.04992E+03  6.676E-01  1.497E+01  5.241E-02  1.223E+00
   1    8    6     5     4    9.7343E+00  1.3577E-01   9.5985E+00  0.000E+00  0.000E+00  0.000E+00  1.04691E+03  6.637E-01  1.482E+01  3.706E-02  1.221E+00
   1    9    6     6     1    9.5985E+00  2.2097E-01   9.3776E+00  0.000E+00  0.000E+00  0.000E+00  1.04341E+03  6.828E-01  1.200E+01  6.000E-02  1.228E+00
   1   10    7     6     2    9.3776E+00  2.2039E-01   9.1572E+00  0.000E+00  0.000E+00  0.000E+00  1.03885E+03  6.732E-01  1.200E+01  6.000E-02  1.224E+00
   1   11    7     6     3    9.1572E+00  2.1981E-01   8.9374E+00  0.000E+00  0.000E+00  0.000E+00  1.03430E+03  6.636E-01  1.200E+01  6.000E-02  1.221E+00
   1   12    7     6     4    8.9374E+00  2.1923E-01   8.7181E+00  0.000E+00  0.000E+00  0.000E+00  1.02974E+03  6.539E-01  1.200E+01  6.000E-02  1.218E+00
   1   13    7     6     5    8.7181E+00 -8.6596E-03   8.7268E+00  0.000E+00  0.000E+00  0.000E+00  1.02656E+03  6.492E-01  1.200E+01  2.400E-01 -1.203E-02
   1   14    9     7     1    1.5000E+02  1.3914E+00   1.4861E+02  0.000E+00  0.000E+00  0.000E+00  1.03987E+03  2.288E+00  5.529E+01  5.593E-01  8.293E-01
   1   13    8     7     2    1.4861E+02  1.9952E+00   1.4661E+02  0.000E+00  0.000E+00  0.000E+00  1.03478E+03  2.279E+00  5.525E+01  6.147E-01  1.082E+00
   1   13    7     7     3    1.4661E+02  1.7274E+00   1.4489E+02  0.000E+00  0.000E+00  0.000E+00  1.02969E+03  2.269E+00  5.521E+01  5.584E-01  1.031E+00
   1   13    6     8     1    1.5361E+02  1.0775E+00   1.5254E+02  0.000E+00  0.000E+00  0.000E+00  1.02471E+03  2.838E+00  4.116E+01  4.194E-01  8.564E-01
   1   13    5     8     2    1.5254E+02  3.3081E-01   1.5220E+02  0.000E+00  0.000E+00  0.000E+00  1.01846E+03  2.833E+00  4.108E+01  4.187E-01  2.634E-01
   1   13    4     8     3    1.5220E+02 -1.8864E+00   1.5409E+02  0.000E+00  0.000E+00  0.000E+00  1.01221E+03  2.839E+00  4.116E+01  4.195E+00 -1.499E-01
   1   13    3     8     4    1.5409E+02 -3.3640E+00   1.5745E+02  0.000E+00  0.000E+00  0.000E+00  1.00598E+03  2.857E+00  4.143E+01  4.222E+00 -2.656E-01
   1   13    2     8     5    1.5745E+02 -2.5102E+00   1.5997E+02  0.000E+00  0.000E+00  0.000E+00  9.99752E+02  2.877E+00  4.172E+01  4.251E+00 -1.968E-01
   1   13    1     8     6    1.5997E+02 -1.9704E+00   1.6194E+02  0.000E+00  0.000E+00  0.000E+00  9.94767E+02  2.892E+00  4.194E+01  2.564E+00 -2.561E-01
   1    8    6     9     1    9.7913E+00  0.0000E+00   9.7913E+00  0.000E+00  0.000E+00  0.000E+00  1.08099E+03  2.238E+00  4.000E+00  0.000E+00  1.746E+00
   1    8    5     9     2    9.7913E+00  0.0000E+00   9.7913E+00  0.000E+00  0.000E+00  0.000E+00  1.08049E+03  2.238E+00  4.000E+00  0.000E+00  1.746E+00





UNSATURATED ZONE PACKAGE VOLUMETRIC BUDGET FOR  TIME STEP    30 STRESS PERIOD   44
  ------------------------------------------------------------------------------



     CUMULATIVE VOLUMES      L**3       RATES FOR THIS TIME STEP      L**3/T
     ------------------                 ------------------------

           IN:                                      IN:
           ---                                      ---
        INFILTRATION =  1542017724.0161          INFILTRATION =          60.8162

          OUT:                                     OUT:
          ----                                     ----
              UZF ET =  1535262655.3581                UZF ET =          60.8175
        UZF RECHARGE =       73224.0000          UZF RECHARGE =       0.0000E+00

            IN - OUT =     6681844.6581              IN - OUT =      -1.3218E-03

          STORAGE:                                 STORAGE:
          --------                                 --------
      STORAGE CHANGE =     6681843.2196        STORAGE CHANGE =      -1.3243E-03

 PERCENT DISCREPANCY IS DIFFERENCE BETWEEN IN-OUT MINUS CHANGE IN STORAGE
 DIVIDED BY THE AVERAGE OF IN AND OUT TIMES 100

 PERCENT DISCREPANCY =           0.00     PERCENT DISCREPANCY =           0.00






1
  VOLUMETRIC BUDGET FOR AGRICULTURAL FIELDS AT  END OF TIME STEP   30, STRESS PERIOD  44
  ------------------------------------------------------------------------------

     CUMULATIVE VOLUMES      L**3       RATES FOR THIS TIME STEP      L**3/T
     ------------------                 ------------------------

           IN:                                      IN:
           ---                                      ---
           AG WELLS      =   738392128.0000             AG WELLS      =          50.1772
      DIVERSION SEGMENTS =   707783744.0000        DIVERSION SEGMENTS =           9.7913
           GW IRRIGATION =           0.0000             GW IRRIGATION =           0.0000
           SW IRRIGATION =           0.0000             SW IRRIGATION =           0.0000
        SYSTEM LOSSES GW =           0.0000          SYSTEM LOSSES GW =           0.0000
        SYSTEM LOSSES SW =           0.0000          SYSTEM LOSSES SW =           0.0000

                TOTAL IN =  1446175872.0000                  TOTAL IN =          59.9685

          OUT:                                     OUT:
          ----                                     ----
           AG WELLS      =           0.0000             AG WELLS      =           0.0000
      DIVERSION SEGMENTS =           0.0000        DIVERSION SEGMENTS =           0.0000
           GW IRRIGATION =   738392128.0000             GW IRRIGATION =          50.1772
           SW IRRIGATION =   707796800.0000             SW IRRIGATION =           9.7915
        SYSTEM LOSSES GW =           0.0000          SYSTEM LOSSES GW =           0.0000
        SYSTEM LOSSES SW =           0.0000          SYSTEM LOSSES SW =           0.0000

               TOTAL OUT =  1446188928.0000                 TOTAL OUT =          59.9687

                IN - OUT =      -13056.0000                  IN - OUT =      -1.9455E-04

     PERCENT DISCREPANCY =          -0.00         PERCENT DISCREPANCY =          -0.00



1
  VOLUMETRIC BUDGET FOR ENTIRE MODEL AT END OF TIME STEP   30, STRESS PERIOD  44
  ------------------------------------------------------------------------------

     CUMULATIVE VOLUMES      L**3       RATES FOR THIS TIME STEP      L**3/T
     ------------------                 ------------------------

           IN:                                      IN:
           ---                                      ---
             STORAGE     =  1038774656.0000               STORAGE     =          48.1182
       CONSTANT HEAD     =           0.0000         CONSTANT HEAD     =           0.0000
     HEAD DEP BOUNDS     =    32648218.0000       HEAD DEP BOUNDS     =           0.2895
      STREAM LEAKAGE     =  1344419840.0000        STREAM LEAKAGE     =          11.8874
        UZF RECHARGE     =       73223.9531          UZF RECHARGE     =           0.0000
               GW ET     =           0.0000                 GW ET     =           0.0000
     SURFACE LEAKAGE     =           0.0000       SURFACE LEAKAGE     =           0.0000
           AG WELLS      =           0.0000             AG WELLS      =           0.0000

                TOTAL IN =  2415916032.0000                  TOTAL IN =          60.2951

          OUT:                                     OUT:
          ----                                     ----
             STORAGE     =   509489376.0000               STORAGE     =       9.1907E-02
       CONSTANT HEAD     =           0.0000         CONSTANT HEAD     =           0.0000
     HEAD DEP BOUNDS     =    32580932.0000       HEAD DEP BOUNDS     =           0.2864
      STREAM LEAKAGE     =  1135472896.0000        STREAM LEAKAGE     =           9.7397
        UZF RECHARGE     =           0.0000          UZF RECHARGE     =           0.0000
               GW ET     =           0.0000                 GW ET     =           0.0000
     SURFACE LEAKAGE     =           0.0000       SURFACE LEAKAGE     =           0.0000
           AG WELLS      =   738392128.0000             AG WELLS      =          50.1772

               TOTAL OUT =  2415935232.0000                 TOTAL OUT =          60.2951

                IN - OUT =      -19200.0000                  IN - OUT =       1.5259E-05

     PERCENT DISCREPANCY =          -0.00         PERCENT DISCREPANCY =           0.00






         TIME SUMMARY AT END OF TIME STEP   30 IN STRESS PERIOD   44
                    SECONDS     MINUTES      HOURS       DAYS        YEARS
                    -----------------------------------------------------------
   TIME STEP LENGTH  87667.      1461.1      24.352      1.0147     2.77799E-03
 STRESS PERIOD TIME 2.63000E+06  43833.      730.56      30.440     8.33397E-02
         TOTAL TIME 1.13175E+08 1.88626E+06  31438.      1309.9      3.5863    
1
1
                            STRESS PERIOD NO.   45, LENGTH =   2630000.    
                            -----------------------------------------------

                              NUMBER OF TIME STEPS =    30

                               MULTIPLIER FOR DELT =     1.000

                            INITIAL TIME STEP SIZE =   87666.66    

 REUSING NON-PARAMETER GHB CELLS FROM LAST STRESS PERIOD

      2 GHB CELLS

 REUSING STREAM SEGMENT DATA FROM LAST STRESS PERIOD



            AREAL INFILTRATION RATE
 READING ON UNIT   19 WITH FORMAT: (FREE)              

            1           2           3           4           5           6           7           8           9          10
 ........................................................................................................................
   1   1.0000E-10  2.0000E-10   0.000       0.000       0.000       0.000       0.000       0.000       0.000       0.000    
   2   2.0000E-10  1.0000E-10  2.0000E-10   0.000       0.000      8.0000E-10  8.0000E-10  5.0000E-10   0.000       0.000    
   3    0.000      5.0000E-10  1.0000E-10  1.0000E-10  8.0000E-10  8.0000E-10  5.0000E-10  5.0000E-10   0.000       0.000    
   4   8.0000E-10  5.0000E-10  1.0000E-10  1.0000E-10  1.0000E-10  1.0000E-10  1.0000E-10  1.0000E-10  2.0000E-10   0.000    
   5   8.0000E-10  5.0000E-10  1.0000E-10  1.0000E-10  1.0000E-10  1.0000E-10  1.0000E-10  1.0000E-10  1.0000E-10  1.0000E-10
   6   8.0000E-10  5.0000E-10  5.0000E-10  2.0000E-10  2.0000E-10  1.0000E-10  1.0000E-10  1.0000E-10  1.0000E-10  5.0000E-10
   7   8.0000E-10  5.0000E-10  5.0000E-10  2.0000E-10  2.0000E-10  1.0000E-10  1.0000E-10  2.0000E-10  2.0000E-10   0.000    
   8    0.000      5.0000E-10  5.0000E-10  2.0000E-10  2.0000E-10  1.0000E-10  1.0000E-10  2.0000E-10  5.0000E-10   0.000    
   9    0.000      5.0000E-10  5.0000E-10  2.0000E-10  2.0000E-10  1.0000E-10  1.0000E-10  2.0000E-10  5.0000E-10   0.000    
  10    0.000      5.0000E-10  5.0000E-10  2.0000E-10  2.0000E-10  1.0000E-10  1.0000E-10  2.0000E-10  5.0000E-10  8.0000E-10
  11    0.000      1.0000E-10  1.0000E-10  1.0000E-10  1.0000E-10  1.0000E-10  1.0000E-10  2.0000E-10  5.0000E-10   0.000    
  12   1.0000E-10  1.0000E-10  1.0000E-10  1.0000E-10  1.0000E-10  1.0000E-10  1.0000E-10  1.0000E-10  2.0000E-10   0.000    
  13   1.0000E-10  1.0000E-10  2.0000E-10  2.0000E-10  2.0000E-10  2.0000E-10  2.0000E-10  1.0000E-10  1.0000E-10   0.000    
  14    0.000      2.0000E-10  5.0000E-10  5.0000E-10  5.0000E-10  5.0000E-10  5.0000E-10  2.0000E-10  1.0000E-10   0.000    
  15    0.000       0.000      8.0000E-10  8.0000E-10  8.0000E-10  8.0000E-10   0.000       0.000       0.000       0.000    

                  ET RATE =  3.250000E-07

 USING ET EXTINCTION DEPTH FROM PREVIOUS STRESS PERIOD. CURRENT PERIOD IS:      45

 USING EXTINCTION WATER CONTENT FROM PREVIOUS STRESS PERIOD. CURRENT PERIOD IS:      45

 USING AIR ENTRY PRESSURE FROM PREVIOUS STRESS PERIOD. CURRENT PERIOD IS:      45

 USING ROOT PRESSURE HEAD FROM PREVIOUS STRESS PERIOD. CURRENT PERIOD IS:      45

 USING ROOT ACTIVITY FROM PREVIOUS STRESS PERIOD. CURRENT PERIOD IS:      45

 PROCESSING AG STRESS PERIOD DATA

 READING AG STRESS PERIOD DATA

 READING IRRIGATION SEGMENT

 READING IRRIGATION WELL

 READING SUPPLEMENTAL WELL

 END PROCESSING AG STRESS PERIOD DATA OPTIONS
 
 SOLVING FOR HEAD 
                                                   Max.-Head-Change                         Max.-Flux-Residual
  Residual-Control   Outer-Iter.   Inner-Iter.     Column Row Layer    Maximum-Head-Change  Column Row Layer    Maximum-Flux-Residual          L2-NORM 
          0                 1           2             5    8     1       0.6792883750E-01       5    8    1         0.3703518654E+01      0.8532707850E+01
          0                 2           2             4    7     1      -0.2309878128E+00       5    8    1        -0.1255921157E+02      0.3060154064E+02
          0                 3           2             4    7     1       0.1572914967E-01       5    8    1         0.8790783385E+00      0.2141986931E+01
          0                 4           2             4    7     1      -0.6258788396E-03       5    8    1        -0.3594929080E-01      0.8760030048E-01
          0                 5           1             4    7     1       0.7717355760E-05       5    8    1         0.4552398873E-03      0.1109946850E-02

    ------------------------------------------------
       NWT REQUIRED            5 OUTER ITERATIONS 
       AND A TOTAL OF          9 INNER ITERATIONS.
    ------------------------------------------------

 NO OUTPUT CONTROL FOR STRESS PERIOD   45   TIME STEP    1
 
 SOLVING FOR HEAD 
                                                   Max.-Head-Change                         Max.-Flux-Residual
  Residual-Control   Outer-Iter.   Inner-Iter.     Column Row Layer    Maximum-Head-Change  Column Row Layer    Maximum-Flux-Residual          L2-NORM 
          0                 1           2             5    8     1       0.7136971064E-01       5    8    1         0.3892074521E+01      0.8957537109E+01
          0                 2           2             5    8     1      -0.1428283344E-01       5    8    1        -0.7933598049E+00      0.1828111103E+01
          0                 3           2             4    7     1      -0.2206729790E-01       4    7    1        -0.1184563383E+01      0.2898296328E+01
          0                 4           2             4    7     1       0.2262295650E-01       4    7    1         0.1248114273E+01      0.3056096833E+01
          0                 5           2             4    7     1      -0.1783585617E-02       4    7    1        -0.1011442709E+00      0.2477266066E+00
          0                 6           2             4    7     1      -0.1138917641E-02       4    7    1        -0.6458411984E-01      0.1581975710E+00
          0                 7           2             4    7     1      -0.9766754335E-03       4    7    1        -0.5538338565E-01      0.1356600608E+00
          0                 8           2             4    7     1      -0.1332726534E-02       4    7    1        -0.7557291639E-01      0.1851142503E+00
          0                 9           2             4    7     1      -0.1252150889E-02       4    7    1        -0.7100310848E-01      0.1739202619E+00
          0                10           2             4    7     1      -0.1194698917E-02       4    7    1        -0.6774463012E-01      0.1659387153E+00
                                                   Max.-Head-Change                         Max.-Flux-Residual
  Residual-Control   Outer-Iter.   Inner-Iter.     Column Row Layer    Maximum-Head-Change  Column Row Layer    Maximum-Flux-Residual          L2-NORM 
          0                11           2             4    7     1      -0.1155373446E-02       4    7    1        -0.6551405781E-01      0.1604750000E+00
          0                12           2             4    7     1      -0.1136473842E-02       4    7    1        -0.6444174244E-01      0.1578484077E+00
          0                13           2             4    7     1      -0.1142388946E-02       4    7    1        -0.6477650897E-01      0.1586684309E+00
          0                14           2             4    7     1      -0.1181352550E-02       4    7    1        -0.6698518911E-01      0.1640785651E+00
          0                15           2             4    7     1      -0.1269126519E-02       4    7    1        -0.7196144999E-01      0.1762678319E+00
          0                16           2             4    7     1      -0.1063753451E-02       4    7    1        -0.6031586440E-01      0.1477420201E+00
          0                17           2             4    7     1      -0.1175104194E-02       4    7    1        -0.6662892158E-01      0.1632059547E+00
          0                18           2             4    7     1      -0.1371149008E-02       4    7    1        -0.7774398364E-01      0.1904320938E+00
          0                19           2             4    7     1      -0.1374122391E-02       4    7    1        -0.7791179225E-01      0.1908429764E+00
          0                20           2             4    7     1      -0.1178244777E-02       4    7    1        -0.6680499412E-01      0.1636369866E+00
                                                   Max.-Head-Change                         Max.-Flux-Residual
  Residual-Control   Outer-Iter.   Inner-Iter.     Column Row Layer    Maximum-Head-Change  Column Row Layer    Maximum-Flux-Residual          L2-NORM 
          0                21           2             4    7     1      -0.1253629879E-02       4    7    1        -0.7107854799E-01      0.1741051725E+00
          0                22           2             4    7     1      -0.1197163793E-02       4    7    1        -0.6787634447E-01      0.1662613490E+00
          0                23           2             4    7     1      -0.1208376575E-02       4    7    1        -0.6851140901E-01      0.1678169784E+00
          0                24           2             4    7     1      -0.1312108536E-02       4    7    1        -0.7439197691E-01      0.1822213594E+00
          0                25           2             4    7     1      -0.1398583261E-02       4    7    1        -0.7929400669E-01      0.1942287445E+00
          0                26           2             4    7     1      -0.1372232306E-02       4    7    1        -0.7779923827E-01      0.1905672525E+00
          0                27           2             4    7     1      -0.1403697276E-02       4    7    1        -0.7958237307E-01      0.1949350432E+00
          0                28           2             4    7     1      -0.1369211602E-02       4    7    1        -0.7762644229E-01      0.1901439857E+00
          0                29           2             4    7     1      -0.1355396155E-02       4    7    1        -0.7684242692E-01      0.1882235762E+00
          0                30           2             4    7     1      -0.1397372217E-02       4    7    1        -0.7922142517E-01      0.1940509193E+00
                                                   Max.-Head-Change                         Max.-Flux-Residual
  Residual-Control   Outer-Iter.   Inner-Iter.     Column Row Layer    Maximum-Head-Change  Column Row Layer    Maximum-Flux-Residual          L2-NORM 
          0                31           2             4    7     1      -0.1405017825E-02       4    7    1        -0.7965408900E-01      0.1951106905E+00
          0                32           2             4    7     1      -0.1222412740E-03       4    7    1        -0.6930029907E-02      0.1697404719E-01
          0                33           1             4    7     1       0.1540518528E-05       5    8    1         0.8986554758E-04      0.2201827303E-03

    ------------------------------------------------
       NWT REQUIRED           33 OUTER ITERATIONS 
       AND A TOTAL OF         65 INNER ITERATIONS.
    ------------------------------------------------

 NO OUTPUT CONTROL FOR STRESS PERIOD   45   TIME STEP    2
 
 SOLVING FOR HEAD 
                                                   Max.-Head-Change                         Max.-Flux-Residual
  Residual-Control   Outer-Iter.   Inner-Iter.     Column Row Layer    Maximum-Head-Change  Column Row Layer    Maximum-Flux-Residual          L2-NORM 
          0                 1           2             5    8     1       0.6936370618E-01       5    8    1         0.3780001961E+01      0.8772600532E+01
          0                 2           2             5    6     1      -0.8895149899E-01       5    8    1        -0.4900947064E+01      0.1185989132E+02
          0                 3           2             5    6     1       0.6056664386E-02       5    8    1         0.3430321313E+00      0.8300578910E+00
          0                 4           2             4    7     1      -0.1426185274E-02       5    8    1        -0.8132940846E-01      0.1987626009E+00
          0                 5           2             4    7     1      -0.1179571745E-02       4    7    1        -0.6689016870E-01      0.1638391025E+00
          0                 6           2             4    7     1      -0.1214474278E-02       5    8    1        -0.6886948605E-01      0.1686941210E+00
          0                 7           2             4    7     1      -0.1274079919E-02       5    8    1        -0.7224874075E-01      0.1769716229E+00
          0                 8           2             4    7     1      -0.1374248549E-02       5    8    1        -0.7792816873E-01      0.1908832757E+00
          0                 9           2             4    7     1      -0.1243425270E-02       5    8    1        -0.7050916352E-01      0.1727104241E+00
          0                10           2             4    7     1      -0.1384765272E-02       5    8    1        -0.7852294228E-01      0.1923401963E+00
                                                   Max.-Head-Change                         Max.-Flux-Residual
  Residual-Control   Outer-Iter.   Inner-Iter.     Column Row Layer    Maximum-Head-Change  Column Row Layer    Maximum-Flux-Residual          L2-NORM 
          0                11           2             4    7     1      -0.1332578567E-02       5    8    1        -0.7556309719E-01      0.1850899721E+00
          0                12           2             4    7     1      -0.1311799219E-02       5    8    1        -0.7438405271E-01      0.1822019604E+00
          0                13           2             4    7     1      -0.1325073455E-02       5    8    1        -0.7513598631E-01      0.1840438282E+00
          0                14           2             4    7     1      -0.1383518617E-02       5    8    1        -0.7844921077E-01      0.1921595259E+00
          0                15           2             4    7     1      -0.1306934786E-02       5    8    1        -0.7410606518E-01      0.1815209912E+00
          0                16           2             4    7     1      -0.1269295707E-02       5    8    1        -0.7197110483E-01      0.1762914898E+00
          0                17           2             4    7     1      -0.1273426724E-02       5    8    1        -0.7220459737E-01      0.1768634541E+00
          0                18           2             4    7     1      -0.1331889726E-02       5    8    1        -0.7551872497E-01      0.1849813707E+00
          0                19           2             4    7     1      -0.1329114431E-02       5    8    1        -0.7536066452E-01      0.1845941578E+00
          0                20           2             4    7     1      -0.1399693346E-02       5    8    1        -0.7936164294E-01      0.1943945166E+00
                                                   Max.-Head-Change                         Max.-Flux-Residual
  Residual-Control   Outer-Iter.   Inner-Iter.     Column Row Layer    Maximum-Head-Change  Column Row Layer    Maximum-Flux-Residual          L2-NORM 
          0                21           2             4    7     1      -0.1345720500E-02       5    8    1        -0.7630075476E-01      0.1868968479E+00
          0                22           2             4    7     1      -0.1378792430E-02       5    8    1        -0.7817505365E-01      0.1914879677E+00
          0                23           2             4    7     1      -0.1355323534E-02       5    8    1        -0.7684369220E-01      0.1882267842E+00
          0                24           2             4    7     1      -0.1375978288E-02       5    8    1        -0.7801396352E-01      0.1910933710E+00
          0                25           2             4    7     1      -0.1409472154E-02       5    8    1        -0.7991217037E-01      0.1957429919E+00
          0                26           2             4    7     1      -0.1396585008E-02       5    8    1        -0.7918076418E-01      0.1939513947E+00
          0                27           2             4    7     1      -0.1400569479E-02       5    8    1        -0.7940586891E-01      0.1945027974E+00
          0                28           2             4    7     1      -0.1409811949E-02       5    8    1        -0.7992908088E-01      0.1957843961E+00
          0                29           2             4    7     1      -0.8926989700E-03       5    8    1        -0.5061131089E-01      0.1239708228E+00
          0                30           1             4    7     1       0.9530535920E-05       4    7    1         0.5552857583E-03      0.1360441511E-02

    ------------------------------------------------
       NWT REQUIRED           30 OUTER ITERATIONS 
       AND A TOTAL OF         59 INNER ITERATIONS.
    ------------------------------------------------

 NO OUTPUT CONTROL FOR STRESS PERIOD   45   TIME STEP    3
 
 SOLVING FOR HEAD 
                                                   Max.-Head-Change                         Max.-Flux-Residual
  Residual-Control   Outer-Iter.   Inner-Iter.     Column Row Layer    Maximum-Head-Change  Column Row Layer    Maximum-Flux-Residual          L2-NORM 
          0                 1           2             5    8     1       0.6969460750E-01       5    8    1         0.3797021920E+01      0.8842666879E+01
          0                 2           2             5    6     1      -0.8953810919E-01       5    8    1        -0.4932881913E+01      0.1194172527E+02
          0                 3           2             5    6     1       0.6096618503E-02       5    8    1         0.3452680317E+00      0.8357875027E+00
          0                 4           2             4    7     1      -0.1642566731E-02       5    8    1        -0.9359021811E-01      0.2288050417E+00
          0                 5           2             4    7     1      -0.1138294608E-02       4    7    1        -0.6454933160E-01      0.1581056066E+00
          0                 6           2             4    7     1      -0.1179851379E-02       5    8    1        -0.6690595687E-01      0.1638845179E+00
          0                 7           2             4    7     1      -0.1242820431E-02       5    8    1        -0.7047596306E-01      0.1726292480E+00
          0                 8           2             4    7     1      -0.1346882024E-02       5    8    1        -0.7637614948E-01      0.1870816442E+00
          0                 9           2             4    7     1      -0.1232019996E-02       5    8    1        -0.6986225626E-01      0.1711258520E+00
          0                10           2             4    7     1      -0.1383214808E-02       5    8    1        -0.7843484382E-01      0.1921244083E+00
                                                   Max.-Head-Change                         Max.-Flux-Residual
  Residual-Control   Outer-Iter.   Inner-Iter.     Column Row Layer    Maximum-Head-Change  Column Row Layer    Maximum-Flux-Residual          L2-NORM 
          0                11           2             4    7     1      -0.1352472461E-02       5    8    1        -0.7669098419E-01      0.1878527205E+00
          0                12           2             4    7     1      -0.1359103699E-02       5    8    1        -0.7706620892E-01      0.1887718585E+00
          0                13           2             4    7     1      -0.1410964492E-02       5    8    1        -0.8000608560E-01      0.1959730492E+00
          0                14           2             4    7     1      -0.1317537378E-02       5    8    1        -0.7470784089E-01      0.1829950143E+00
          0                15           2             4    7     1      -0.1261064988E-02       5    8    1        -0.7150497250E-01      0.1751496962E+00
          0                16           2             4    7     1      -0.1411437242E-02       5    8    1        -0.8003044502E-01      0.1960327929E+00
          0                17           2             4    7     1      -0.1333574525E-02       5    8    1        -0.7561493673E-01      0.1852169326E+00
          0                18           2             4    7     1      -0.1312023776E-02       5    8    1        -0.7439220679E-01      0.1822219340E+00
          0                19           2             4    7     1      -0.1354391595E-02       5    8    1        -0.7679367321E-01      0.1881043150E+00
          0                20           2             4    7     1      -0.1368053318E-02       5    8    1        -0.7756754505E-01      0.1899998723E+00
                                                   Max.-Head-Change                         Max.-Flux-Residual
  Residual-Control   Outer-Iter.   Inner-Iter.     Column Row Layer    Maximum-Head-Change  Column Row Layer    Maximum-Flux-Residual          L2-NORM 
          0                21           2             4    7     1      -0.1373647503E-02       5    8    1        -0.7788396551E-01      0.1907749317E+00
          0                22           2             4    7     1      -0.1394786297E-02       5    8    1        -0.7908171328E-01      0.1937087983E+00
          0                23           2             4    7     1      -0.1385835402E-02       5    8    1        -0.7857345941E-01      0.1924638194E+00
          0                24           2             4    7     1      -0.1382779761E-02       5    8    1        -0.7839943157E-01      0.1920375477E+00
          0                25           2             4    7     1      -0.1414240586E-02       5    8    1        -0.8018234765E-01      0.1964047841E+00
          0                26           2             4    7     1      -0.1412212370E-02       5    8    1        -0.8006658816E-01      0.1961212078E+00
          0                27           2             4    7     1      -0.1408058441E-02       5    8    1        -0.7983028859E-01      0.1955423971E+00
          0                28           2             4    7     1      -0.1394730578E-02       5    8    1        -0.7907388595E-01      0.1936895999E+00
          0                29           1             4    7     1       0.1503556920E-04       4    7    1         0.8760357907E-03      0.2146302747E-02

    ------------------------------------------------
       NWT REQUIRED           29 OUTER ITERATIONS 
       AND A TOTAL OF         57 INNER ITERATIONS.
    ------------------------------------------------

 NO OUTPUT CONTROL FOR STRESS PERIOD   45   TIME STEP    4
 
 SOLVING FOR HEAD 
                                                   Max.-Head-Change                         Max.-Flux-Residual
  Residual-Control   Outer-Iter.   Inner-Iter.     Column Row Layer    Maximum-Head-Change  Column Row Layer    Maximum-Flux-Residual          L2-NORM 
          0                 1           2             5    8     1       0.7002818453E-01       5    8    1         0.3814225459E+01      0.8911940372E+01
          0                 2           2             5    7     1      -0.9011044275E-01       5    8    1        -0.4963804675E+01      0.1202091634E+02
          0                 3           2             5    7     1       0.6135572600E-02       5    8    1         0.3474321328E+00      0.8413297052E+00
          0                 4           2             4    7     1      -0.1514309764E-02       5    8    1        -0.8630778125E-01      0.2109774206E+00
          0                 5           2             4    7     1      -0.1307745766E-02       4    7    1        -0.7415821187E-01      0.1816425066E+00
          0                 6           2             4    7     1      -0.1406611937E-02       5    8    1        -0.7976467652E-01      0.1953816827E+00
          0                 7           2             4    7     1      -0.1251927658E-02       5    8    1        -0.7099240481E-01      0.1738940959E+00
          0                 8           2             4    7     1      -0.1380346712E-02       5    8    1        -0.7827360197E-01      0.1917294343E+00
          0                 9           2             4    7     1      -0.1297819345E-02       5    8    1        -0.7359325135E-01      0.1802648592E+00
          0                10           2             4    7     1      -0.1239785276E-02       5    8    1        -0.7030169475E-01      0.1722022948E+00
                                                   Max.-Head-Change                         Max.-Flux-Residual
  Residual-Control   Outer-Iter.   Inner-Iter.     Column Row Layer    Maximum-Head-Change  Column Row Layer    Maximum-Flux-Residual          L2-NORM 
          0                11           2             4    7     1      -0.1203867463E-02       5    8    1        -0.6826429582E-01      0.1672117499E+00
          0                12           2             4    7     1      -0.1410859735E-02       5    8    1        -0.8000065049E-01      0.1959598540E+00
          0                13           2             4    7     1      -0.1286730166E-02       5    8    1        -0.7296158198E-01      0.1787175670E+00
          0                14           2             4    7     1      -0.1383686160E-02       5    8    1        -0.7845833531E-01      0.1921819100E+00
          0                15           2             4    7     1      -0.1369985601E-02       5    8    1        -0.7768079772E-01      0.1902772597E+00
          0                16           2             4    7     1      -0.1252567312E-02       5    8    1        -0.7102232608E-01      0.1739674174E+00
          0                17           2             4    7     1      -0.1316872844E-02       5    8    1        -0.7466766426E-01      0.1828967262E+00
          0                18           2             4    7     1      -0.1321146584E-02       5    8    1        -0.7490929624E-01      0.1834885472E+00
          0                19           2             4    7     1      -0.1401154933E-02       5    8    1        -0.7944494499E-01      0.1945985700E+00
          0                20           2             4    7     1      -0.1361418247E-02       5    8    1        -0.7719121317E-01      0.1890780152E+00
                                                   Max.-Head-Change                         Max.-Flux-Residual
  Residual-Control   Outer-Iter.   Inner-Iter.     Column Row Layer    Maximum-Head-Change  Column Row Layer    Maximum-Flux-Residual          L2-NORM 
          0                21           2             4    7     1      -0.1415534123E-02       5    8    1        -0.8025866973E-01      0.1965917517E+00
          0                22           2             4    7     1      -0.1341981811E-02       5    8    1        -0.7608770322E-01      0.1863749694E+00
          0                23           2             4    7     1      -0.1381891485E-02       5    8    1        -0.7834964086E-01      0.1919156209E+00
          0                24           2             4    7     1      -0.1388241424E-02       5    8    1        -0.7870891501E-01      0.1927956256E+00
          0                25           2             4    7     1      -0.1399505507E-02       5    8    1        -0.7934676369E-01      0.1943580259E+00
          0                26           2             4    7     1      -0.1403406009E-02       5    8    1        -0.7956712613E-01      0.1948977927E+00
          0                27           2             4    7     1      -0.1407695677E-02       5    8    1        -0.7980954216E-01      0.1954915854E+00
          0                28           2             4    7     1      -0.8610605393E-03       5    8    1        -0.4881788213E-01      0.1195778404E+00
          0                29           1             4    7     1       0.9345306974E-05       4    7    1         0.5444974856E-03      0.1334021511E-02

    ------------------------------------------------
       NWT REQUIRED           29 OUTER ITERATIONS 
       AND A TOTAL OF         57 INNER ITERATIONS.
    ------------------------------------------------

 NO OUTPUT CONTROL FOR STRESS PERIOD   45   TIME STEP    5
 
 SOLVING FOR HEAD 
                                                   Max.-Head-Change                         Max.-Flux-Residual
  Residual-Control   Outer-Iter.   Inner-Iter.     Column Row Layer    Maximum-Head-Change  Column Row Layer    Maximum-Flux-Residual          L2-NORM 
          0                 1           2             5    8     1       0.7036364907E-01       5    8    1         0.3831566552E+01      0.8980462830E+01
          0                 2           2             5    7     1      -0.9069855920E-01       5    8    1        -0.4993777028E+01      0.1209762489E+02
          0                 3           2             5    7     1       0.6175620535E-02       5    8    1         0.3495301823E+00      0.8466993101E+00
          0                 4           2             4    7     1      -0.1400907757E-02       5    8    1        -0.7986807516E-01      0.1952136244E+00
          0                 5           2             4    7     1      -0.1171339706E-02       4    7    1        -0.6642290957E-01      0.1626950208E+00
          0                 6           2             4    7     1      -0.1234574708E-02       5    8    1        -0.7000884413E-01      0.1714849777E+00
          0                 7           2             4    7     1      -0.1334142566E-02       5    8    1        -0.7565416989E-01      0.1853131702E+00
          0                 8           2             4    7     1      -0.1211544027E-02       5    8    1        -0.6870154673E-01      0.1682827159E+00
          0                 9           2             4    7     1      -0.1352744131E-02       5    8    1        -0.7670744372E-01      0.1878931754E+00
          0                10           2             4    7     1      -0.1307439556E-02       5    8    1        -0.7413784963E-01      0.1815988674E+00
                                                   Max.-Head-Change                         Max.-Flux-Residual
  Residual-Control   Outer-Iter.   Inner-Iter.     Column Row Layer    Maximum-Head-Change  Column Row Layer    Maximum-Flux-Residual          L2-NORM 
          0                11           2             4    7     1      -0.1293560353E-02       5    8    1        -0.7335008143E-01      0.1796692774E+00
          0                12           2             4    7     1      -0.1314802698E-02       5    8    1        -0.7455384644E-01      0.1826178964E+00
          0                13           2             4    7     1      -0.1383952466E-02       5    8    1        -0.7847406806E-01      0.1922204213E+00
          0                14           2             4    7     1      -0.1322925243E-02       5    8    1        -0.7501300023E-01      0.1837425187E+00
          0                15           2             4    7     1      -0.1305186084E-02       5    8    1        -0.7400638156E-01      0.1812768666E+00
          0                16           2             4    7     1      -0.1337958434E-02       5    8    1        -0.7586384702E-01      0.1858267205E+00
          0                17           2             4    7     1      -0.1290822881E-02       5    8    1        -0.7319053859E-01      0.1792784536E+00
          0                18           2             4    7     1      -0.1300929130E-02       5    8    1        -0.7376279665E-01      0.1806802315E+00
          0                19           2             4    7     1      -0.1385093206E-02       5    8    1        -0.7853407976E-01      0.1923674301E+00
          0                20           2             4    7     1      -0.1354150597E-02       5    8    1        -0.7677897338E-01      0.1880682502E+00
                                                   Max.-Head-Change                         Max.-Flux-Residual
  Residual-Control   Outer-Iter.   Inner-Iter.     Column Row Layer    Maximum-Head-Change  Column Row Layer    Maximum-Flux-Residual          L2-NORM 
          0                21           2             4    7     1      -0.1324338083E-02       5    8    1        -0.7508788753E-01      0.1839259799E+00
          0                22           2             4    7     1      -0.1395282707E-02       5    8    1        -0.7910948072E-01      0.1937768524E+00
          0                23           2             4    7     1      -0.1392521293E-02       5    8    1        -0.7895218934E-01      0.1933915126E+00
          0                24           2             4    7     1      -0.1364751970E-02       5    8    1        -0.7737699427E-01      0.1895330933E+00
          0                25           2             4    7     1      -0.1387455900E-02       5    8    1        -0.7866341806E-01      0.1926841964E+00
          0                26           2             4    7     1      -0.1404195081E-02       5    8    1        -0.7961168396E-01      0.1950069452E+00
          0                27           2             4    7     1      -0.1410598645E-02       5    8    1        -0.7997395410E-01      0.1958943098E+00
          0                28           2             4    7     1      -0.8404606784E-03       5    8    1        -0.4764989594E-01      0.1167168688E+00
          0                29           1             4    7     1       0.9192872205E-05       4    7    1         0.5356152769E-03      0.1312215046E-02

    ------------------------------------------------
       NWT REQUIRED           29 OUTER ITERATIONS 
       AND A TOTAL OF         57 INNER ITERATIONS.
    ------------------------------------------------

 NO OUTPUT CONTROL FOR STRESS PERIOD   45   TIME STEP    6
 
 SOLVING FOR HEAD 
                                                   Max.-Head-Change                         Max.-Flux-Residual
  Residual-Control   Outer-Iter.   Inner-Iter.     Column Row Layer    Maximum-Head-Change  Column Row Layer    Maximum-Flux-Residual          L2-NORM 
          0                 1           2             5    8     1       0.7070017100E-01       5    8    1         0.3848996944E+01      0.9048108878E+01
          0                 2           2             5    7     1      -0.9126836032E-01       5    8    1        -0.5022852798E+01      0.1217199422E+02
          0                 3           2             5    7     1       0.6214421281E-02       5    8    1         0.3515654713E+00      0.8519052542E+00
          0                 4           2             4    7     1      -0.1598293376E-02       5    8    1        -0.9105256454E-01      0.2226183106E+00
          0                 5           2             4    7     1      -0.1130967239E-02       4    7    1        -0.6413339402E-01      0.1570872066E+00
          0                 6           2             4    7     1      -0.1198636661E-02       5    8    1        -0.6797075568E-01      0.1664927408E+00
          0                 7           2             4    7     1      -0.1299081889E-02       5    8    1        -0.7366585351E-01      0.1804428365E+00
          0                 8           2             4    7     1      -0.1189127658E-02       5    8    1        -0.6743025874E-01      0.1651687356E+00
          0                 9           2             4    7     1      -0.1334287934E-02       5    8    1        -0.7566071962E-01      0.1853292522E+00
          0                10           2             4    7     1      -0.1303447322E-02       5    8    1        -0.7391130473E-01      0.1810439617E+00
                                                   Max.-Head-Change                         Max.-Flux-Residual
  Residual-Control   Outer-Iter.   Inner-Iter.     Column Row Layer    Maximum-Head-Change  Column Row Layer    Maximum-Flux-Residual          L2-NORM 
          0                11           2             4    7     1      -0.1307110976E-02       5    8    1        -0.7411828702E-01      0.1815509915E+00
          0                12           2             4    7     1      -0.1352223026E-02       5    8    1        -0.7667552937E-01      0.1878149258E+00
          0                13           2             4    7     1      -0.1254080914E-02       5    8    1        -0.7110994430E-01      0.1741820487E+00
          0                14           2             4    7     1      -0.1366869145E-02       5    8    1        -0.7750442859E-01      0.1898453489E+00
          0                15           2             4    7     1      -0.1384334593E-02       5    8    1        -0.7849405645E-01      0.1922693407E+00
          0                16           2             4    7     1      -0.1311484751E-02       5    8    1        -0.7436267578E-01      0.1821495573E+00
          0                17           2             4    7     1      -0.1291954862E-02       5    8    1        -0.7325454445E-01      0.1794352584E+00
          0                18           2             4    7     1      -0.1335742975E-02       5    8    1        -0.7573656127E-01      0.1855149454E+00
          0                19           2             4    7     1      -0.1350934332E-02       5    8    1        -0.7659717547E-01      0.1876229762E+00
          0                20           2             4    7     1      -0.1357795779E-02       5    8    1        -0.7698545916E-01      0.1885740626E+00
                                                   Max.-Head-Change                         Max.-Flux-Residual
  Residual-Control   Outer-Iter.   Inner-Iter.     Column Row Layer    Maximum-Head-Change  Column Row Layer    Maximum-Flux-Residual          L2-NORM 
          0                21           2             4    7     1      -0.1379961167E-02       5    8    1        -0.7824142625E-01      0.1916505360E+00
          0                22           2             4    7     1      -0.1371468313E-02       5    8    1        -0.7775914926E-01      0.1904691865E+00
          0                23           2             4    7     1      -0.1369087949E-02       5    8    1        -0.7762341497E-01      0.1901367141E+00
          0                24           2             4    7     1      -0.1405636679E-02       5    8    1        -0.7969480871E-01      0.1952105729E+00
          0                25           2             4    7     1      -0.1389329559E-02       5    8    1        -0.7876951020E-01      0.1929440354E+00
          0                26           2             4    7     1      -0.1403955281E-02       5    8    1        -0.7959791987E-01      0.1949732301E+00
          0                27           2             4    7     1      -0.1412497169E-02       5    8    1        -0.8008141968E-01      0.1961575459E+00
          0                28           2             4    7     1      -0.2477900417E-03       5    8    1        -0.1404913400E-01      0.3441221941E-01
          0                29           1             4    7     1       0.2712233211E-05       4    7    1         0.1580280984E-03      0.3871065459E-03

    ------------------------------------------------
       NWT REQUIRED           29 OUTER ITERATIONS 
       AND A TOTAL OF         57 INNER ITERATIONS.
    ------------------------------------------------

 NO OUTPUT CONTROL FOR STRESS PERIOD   45   TIME STEP    7
 
 SOLVING FOR HEAD 
                                                   Max.-Head-Change                         Max.-Flux-Residual
  Residual-Control   Outer-Iter.   Inner-Iter.     Column Row Layer    Maximum-Head-Change  Column Row Layer    Maximum-Flux-Residual          L2-NORM 
          0                 1           2             5    8     1       0.7103742141E-01       5    8    1         0.3866496756E+01      0.9114885435E+01
          0                 2           2             5    7     1      -0.9182093775E-01       5    8    1        -0.5051084833E+01      0.1224416274E+02
          0                 3           2             5    7     1       0.6252040618E-02       5    8    1         0.3535412224E+00      0.8569558468E+00
          0                 4           2             4    7     1      -0.1479192232E-02       5    8    1        -0.8429028289E-01      0.2060635172E+00
          0                 5           2             4    7     1      -0.1287597512E-02       4    7    1        -0.7301519352E-01      0.1788431261E+00
          0                 6           2             4    7     1      -0.1413788687E-02       5    8    1        -0.8017111523E-01      0.1963772693E+00
          0                 7           2             4    7     1      -0.1309127006E-02       5    8    1        -0.7423546616E-01      0.1818379342E+00
          0                 8           2             4    7     1      -0.1226709082E-02       5    8    1        -0.6956116378E-01      0.1703883640E+00
          0                 9           2             4    7     1      -0.1404324169E-02       5    8    1        -0.7963193679E-01      0.1950566779E+00
          0                10           2             4    7     1      -0.1190875242E-02       5    8    1        -0.6752795574E-01      0.1654079625E+00
                                                   Max.-Head-Change                         Max.-Flux-Residual
  Residual-Control   Outer-Iter.   Inner-Iter.     Column Row Layer    Maximum-Head-Change  Column Row Layer    Maximum-Flux-Residual          L2-NORM 
          0                11           2             4    7     1      -0.1407702053E-02       5    8    1        -0.7982186814E-01      0.1955219441E+00
          0                12           2             4    7     1      -0.1299419312E-02       5    8    1        -0.7368134437E-01      0.1804806191E+00
          0                13           2             4    7     1      -0.1227064384E-02       5    8    1        -0.6957786295E-01      0.1704292760E+00
          0                14           2             4    7     1      -0.1356763700E-02       5    8    1        -0.7693125507E-01      0.1884413857E+00
          0                15           2             4    7     1      -0.1408417446E-02       5    8    1        -0.7985940281E-01      0.1956137494E+00
          0                16           2             4    7     1      -0.1387986270E-02       5    8    1        -0.7870019434E-01      0.1927742444E+00
          0                17           2             4    7     1      -0.1305855968E-02       5    8    1        -0.7404263572E-01      0.1813656209E+00
          0                18           2             4    7     1      -0.1408431673E-02       5    8    1        -0.7985779714E-01      0.1956098612E+00
          0                19           2             4    7     1      -0.1403619813E-02       5    8    1        -0.7958426059E-01      0.1949397537E+00
          0                20           2             4    7     1      -0.1413067188E-02       5    8    1        -0.8011911404E-01      0.1962498787E+00
                                                   Max.-Head-Change                         Max.-Flux-Residual
  Residual-Control   Outer-Iter.   Inner-Iter.     Column Row Layer    Maximum-Head-Change  Column Row Layer    Maximum-Flux-Residual          L2-NORM 
          0                21           2             4    7     1      -0.1384973729E-02       5    8    1        -0.7852550123E-01      0.1923463332E+00
          0                22           2             4    7     1      -0.1356554284E-02       5    8    1        -0.7691340899E-01      0.1883975524E+00
          0                23           2             4    7     1      -0.1411855844E-02       5    8    1        -0.8004802380E-01      0.1960757798E+00
          0                24           2             4    7     1      -0.1407562207E-02       5    8    1        -0.7980384307E-01      0.1954776177E+00
          0                25           2             4    7     1      -0.1401931940E-02       5    8    1        -0.7948383963E-01      0.1946937778E+00
          0                26           2             4    7     1      -0.1411962618E-02       5    8    1        -0.8005173534E-01      0.1960848366E+00
          0                27           2             4    7     1      -0.5906124059E-03       5    8    1        -0.3348524604E-01      0.8202071618E-01
          0                28           1             4    7     1       0.6530872407E-05       4    7    1         0.3805195163E-03      0.9322105633E-03

    ------------------------------------------------
       NWT REQUIRED           28 OUTER ITERATIONS 
       AND A TOTAL OF         55 INNER ITERATIONS.
    ------------------------------------------------

 NO OUTPUT CONTROL FOR STRESS PERIOD   45   TIME STEP    8
 
 SOLVING FOR HEAD 
                                                   Max.-Head-Change                         Max.-Flux-Residual
  Residual-Control   Outer-Iter.   Inner-Iter.     Column Row Layer    Maximum-Head-Change  Column Row Layer    Maximum-Flux-Residual          L2-NORM 
          0                 1           2             5    8     1       0.7137457711E-01       5    8    1         0.3884018316E+01      0.9180762090E+01
          0                 2           2             5    7     1      -0.9235728049E-01       5    8    1        -0.5078517956E+01      0.1231425245E+02
          0                 3           2             5    7     1       0.6288571557E-02       5    8    1         0.3554620036E+00      0.8618647673E+00
          0                 4           2             4    7     1      -0.1678538221E-02       5    8    1        -0.9558643718E-01      0.2337410801E+00
          0                 5           2             4    7     1      -0.1246737733E-02       4    7    1        -0.7069804401E-01      0.1731676170E+00
          0                 6           2             4    7     1      -0.1376225635E-02       5    8    1        -0.7804087051E-01      0.1911592969E+00
          0                 7           2             4    7     1      -0.1284278465E-02       5    8    1        -0.7282624494E-01      0.1783860893E+00
          0                 8           2             4    7     1      -0.1214808827E-02       5    8    1        -0.6888620299E-01      0.1687350728E+00
          0                 9           2             4    7     1      -0.1400584922E-02       5    8    1        -0.7941973358E-01      0.1945368970E+00
          0                10           2             4    7     1      -0.1210165806E-02       5    8    1        -0.6862165642E-01      0.1680869734E+00
                                                   Max.-Head-Change                         Max.-Flux-Residual
  Residual-Control   Outer-Iter.   Inner-Iter.     Column Row Layer    Maximum-Head-Change  Column Row Layer    Maximum-Flux-Residual          L2-NORM 
          0                11           2             4    7     1      -0.1233923208E-02       5    8    1        -0.6996794478E-01      0.1713848467E+00
          0                12           2             4    7     1      -0.1298810946E-02       5    8    1        -0.7364656626E-01      0.1803955666E+00
          0                13           2             4    7     1      -0.1241984852E-02       5    8    1        -0.7042374194E-01      0.1725012426E+00
          0                14           2             4    7     1      -0.1394301739E-02       5    8    1        -0.7905956149E-01      0.1936546386E+00
          0                15           2             4    7     1      -0.1317654135E-02       5    8    1        -0.7471292169E-01      0.1830074692E+00
          0                16           2             4    7     1      -0.1296355628E-02       5    8    1        -0.7350449244E-01      0.1800474991E+00
          0                17           2             4    7     1      -0.1338694175E-02       5    8    1        -0.7590433014E-01      0.1859258905E+00
          0                18           2             4    7     1      -0.1350792734E-02       5    8    1        -0.7658958801E-01      0.1876043889E+00
          0                19           2             4    7     1      -0.1352488067E-02       5    8    1        -0.7668496100E-01      0.1878379958E+00
          0                20           2             4    7     1      -0.1366772011E-02       5    8    1        -0.7749407317E-01      0.1898199068E+00
                                                   Max.-Head-Change                         Max.-Flux-Residual
  Residual-Control   Outer-Iter.   Inner-Iter.     Column Row Layer    Maximum-Head-Change  Column Row Layer    Maximum-Flux-Residual          L2-NORM 
          0                21           2             4    7     1      -0.1345420341E-02       5    8    1        -0.7628273441E-01      0.1868527341E+00
          0                22           2             4    7     1      -0.1386366607E-02       5    8    1        -0.7860348506E-01      0.1925374055E+00
          0                23           2             4    7     1      -0.1368145290E-02       5    8    1        -0.7756965906E-01      0.1900050270E+00
          0                24           2             4    7     1      -0.1412534488E-02       5    8    1        -0.8008555180E-01      0.1961676954E+00
          0                25           2             4    7     1      -0.1395529299E-02       5    8    1        -0.7912068255E-01      0.1938042231E+00
          0                26           2             4    7     1      -0.1412132157E-02       5    8    1        -0.8006117733E-01      0.1961079699E+00
          0                27           2             4    7     1      -0.5305168797E-03       5    8    1        -0.3007812304E-01      0.7367500837E-01
          0                28           1             4    7     1       0.5899169036E-05       4    7    1         0.3437132677E-03      0.8420488742E-03

    ------------------------------------------------
       NWT REQUIRED           28 OUTER ITERATIONS 
       AND A TOTAL OF         55 INNER ITERATIONS.
    ------------------------------------------------

 NO OUTPUT CONTROL FOR STRESS PERIOD   45   TIME STEP    9
 
 SOLVING FOR HEAD 
                                                   Max.-Head-Change                         Max.-Flux-Residual
  Residual-Control   Outer-Iter.   Inner-Iter.     Column Row Layer    Maximum-Head-Change  Column Row Layer    Maximum-Flux-Residual          L2-NORM 
          0                 1           2             5    8     1       0.7171145024E-01       5    8    1         0.3901549740E+01      0.9245746729E+01
          0                 2           2             5    7     1      -0.9287830085E-01       5    8    1        -0.5105196757E+01      0.1238237765E+02
          0                 3           2             5    7     1       0.6324059114E-02       5    8    1         0.3573299824E+00      0.8666346462E+00
          0                 4           2             4    7     1      -0.1554623958E-02       5    8    1        -0.8855176514E-01      0.2165183365E+00
          0                 5           2             4    7     1      -0.1405910444E-02       4    7    1        -0.7972396896E-01      0.1952765584E+00
          0                 6           2             4    7     1      -0.1299293959E-02       5    8    1        -0.7367837289E-01      0.1804732781E+00
          0                 7           2             4    7     1      -0.1210315962E-02       5    8    1        -0.6863198479E-01      0.1681123583E+00
          0                 8           2             4    7     1      -0.1379443541E-02       5    8    1        -0.7822154165E-01      0.1916019423E+00
          0                 9           2             4    7     1      -0.1383576786E-02       5    8    1        -0.7845526786E-01      0.1921743174E+00
          0                10           2             4    7     1      -0.1214892105E-02       5    8    1        -0.6888949584E-01      0.1687430618E+00
                                                   Max.-Head-Change                         Max.-Flux-Residual
  Residual-Control   Outer-Iter.   Inner-Iter.     Column Row Layer    Maximum-Head-Change  Column Row Layer    Maximum-Flux-Residual          L2-NORM 
          0                11           2             4    7     1      -0.1256444831E-02       5    8    1        -0.7124484613E-01      0.1745125987E+00
          0                12           2             4    7     1      -0.1347898742E-02       5    8    1        -0.7642982220E-01      0.1872131055E+00
          0                13           2             4    7     1      -0.1329846917E-02       5    8    1        -0.7540556354E-01      0.1847041249E+00
          0                14           2             4    7     1      -0.1367466490E-02       5    8    1        -0.7753787459E-01      0.1899272154E+00
          0                15           2             4    7     1      -0.1323137983E-02       5    8    1        -0.7502368394E-01      0.1837687018E+00
          0                16           2             4    7     1      -0.1340675248E-02       5    8    1        -0.7601727112E-01      0.1862025190E+00
          0                17           2             4    7     1      -0.1313236632E-02       5    8    1        -0.7446077886E-01      0.1823898924E+00
          0                18           2             4    7     1      -0.1365082045E-02       5    8    1        -0.7739959962E-01      0.1895885250E+00
          0                19           2             4    7     1      -0.1327397139E-02       5    8    1        -0.7526220176E-01      0.1843529501E+00
          0                20           2             4    7     1      -0.1393008269E-02       5    8    1        -0.7898143352E-01      0.1934632004E+00
                                                   Max.-Head-Change                         Max.-Flux-Residual
  Residual-Control   Outer-Iter.   Inner-Iter.     Column Row Layer    Maximum-Head-Change  Column Row Layer    Maximum-Flux-Residual          L2-NORM 
          0                21           2             4    7     1      -0.1378483484E-02       5    8    1        -0.7815718743E-01      0.1914441658E+00
          0                22           2             4    7     1      -0.1389485582E-02       5    8    1        -0.7878018378E-01      0.1929702023E+00
          0                23           2             4    7     1      -0.1414382077E-02       5    8    1        -0.8019094758E-01      0.1964258443E+00
          0                24           2             4    7     1      -0.1405567507E-02       5    8    1        -0.7969042582E-01      0.1951998025E+00
          0                25           2             4    7     1      -0.1410130108E-02       5    8    1        -0.7994830692E-01      0.1958314872E+00
          0                26           2             4    7     1      -0.1223178255E-02       5    8    1        -0.6934839283E-01      0.1698671053E+00
          0                27           1             4    7     1       0.1366655757E-04       4    7    1         0.7962799878E-03      0.1950823793E-02

    ------------------------------------------------
       NWT REQUIRED           27 OUTER ITERATIONS 
       AND A TOTAL OF         53 INNER ITERATIONS.
    ------------------------------------------------

 NO OUTPUT CONTROL FOR STRESS PERIOD   45   TIME STEP   10
 
 SOLVING FOR HEAD 
                                                   Max.-Head-Change                         Max.-Flux-Residual
  Residual-Control   Outer-Iter.   Inner-Iter.     Column Row Layer    Maximum-Head-Change  Column Row Layer    Maximum-Flux-Residual          L2-NORM 
          0                 1           2             5    8     1       0.7204732939E-01       5    8    1         0.3919050537E+01      0.9309821169E+01
          0                 2           2             5    7     1      -0.9338478956E-01       5    8    1        -0.5131158194E+01      0.1244863940E+02
          0                 3           2             5    7     1       0.6358531467E-02       5    8    1         0.3591463155E+00      0.8712706248E+00
          0                 4           2             4    7     1      -0.1444449779E-02       5    8    1        -0.8229651691E-01      0.2012044971E+00
          0                 5           2             4    7     1      -0.1264828760E-02       4    7    1        -0.7172360934E-01      0.1756798013E+00
          0                 6           2             4    7     1      -0.1414481437E-02       5    8    1        -0.8020988784E-01      0.1964722634E+00
          0                 7           2             4    7     1      -0.1356982463E-02       5    8    1        -0.7694865509E-01      0.1884838608E+00
          0                 8           2             4    7     1      -0.1331324352E-02       5    8    1        -0.7549291998E-01      0.1849181014E+00
          0                 9           2             4    7     1      -0.1340101621E-02       5    8    1        -0.7598986088E-01      0.1861353709E+00
          0                10           2             4    7     1      -0.1394675993E-02       5    8    1        -0.7908366240E-01      0.1937135978E+00
                                                   Max.-Head-Change                         Max.-Flux-Residual
  Residual-Control   Outer-Iter.   Inner-Iter.     Column Row Layer    Maximum-Head-Change  Column Row Layer    Maximum-Flux-Residual          L2-NORM 
          0                11           2             4    7     1      -0.1301923695E-02       5    8    1        -0.7382361302E-01      0.1808291199E+00
          0                12           2             4    7     1      -0.1244894156E-02       5    8    1        -0.7058911426E-01      0.1729063230E+00
          0                13           2             4    7     1      -0.1397531748E-02       5    8    1        -0.7924317169E-01      0.1941043876E+00
          0                14           2             4    7     1      -0.1316879009E-02       5    8    1        -0.7466940944E-01      0.1829008841E+00
          0                15           2             4    7     1      -0.1290744916E-02       5    8    1        -0.7318679055E-01      0.1792692925E+00
          0                16           2             4    7     1      -0.1326543047E-02       5    8    1        -0.7521580091E-01      0.1842393497E+00
          0                17           2             4    7     1      -0.1327708565E-02       5    8    1        -0.7528116851E-01      0.1843994383E+00
          0                18           2             4    7     1      -0.1312084706E-02       5    8    1        -0.7439456976E-01      0.1822277242E+00
          0                19           2             4    7     1      -0.1392172197E-02       5    8    1        -0.7893464153E-01      0.1933485947E+00
          0                20           2             4    7     1      -0.1360120911E-02       5    8    1        -0.7711668767E-01      0.1888954728E+00
                                                   Max.-Head-Change                         Max.-Flux-Residual
  Residual-Control   Outer-Iter.   Inner-Iter.     Column Row Layer    Maximum-Head-Change  Column Row Layer    Maximum-Flux-Residual          L2-NORM 
          0                21           2             4    7     1      -0.1391052753E-02       5    8    1        -0.7886964471E-01      0.1931893503E+00
          0                22           2             4    7     1      -0.1409091281E-02       5    8    1        -0.7989161105E-01      0.1956926209E+00
          0                23           2             4    7     1      -0.1379111971E-02       5    8    1        -0.7819112667E-01      0.1915272892E+00
          0                24           2             4    7     1      -0.1404863410E-02       5    8    1        -0.7965031938E-01      0.1951015903E+00
          0                25           2             4    7     1      -0.1408872049E-02       5    8    1        -0.7987682097E-01      0.1956563826E+00
          0                26           2             4    7     1      -0.8022597034E-03       5    8    1        -0.4548456668E-01      0.1114129201E+00
          0                27           1             4    7     1       0.9000100631E-05       4    7    1         0.5243898211E-03      0.1284682385E-02

    ------------------------------------------------
       NWT REQUIRED           27 OUTER ITERATIONS 
       AND A TOTAL OF         53 INNER ITERATIONS.
    ------------------------------------------------

 NO OUTPUT CONTROL FOR STRESS PERIOD   45   TIME STEP   11
 
 SOLVING FOR HEAD 
                                                   Max.-Head-Change                         Max.-Flux-Residual
  Residual-Control   Outer-Iter.   Inner-Iter.     Column Row Layer    Maximum-Head-Change  Column Row Layer    Maximum-Flux-Residual          L2-NORM 
          0                 1           2             5    8     1       0.7238199542E-01       5    8    1         0.3936506702E+01      0.9372991930E+01
          0                 2           2             5    7     1      -0.9387755664E-01       5    8    1        -0.5156439968E+01      0.1251313638E+02
          0                 3           2             5    7     1       0.6392077994E-02       5    8    1         0.3609155491E+00      0.8757842651E+00
          0                 4           2             4    7     1      -0.1627529661E-02       5    8    1        -0.9267094551E-01      0.2266233217E+00
          0                 5           2             4    7     1      -0.1226285391E-02       4    7    1        -0.6953783552E-01      0.1703260698E+00
          0                 6           2             4    7     1      -0.1377830478E-02       5    8    1        -0.7813138499E-01      0.1913810297E+00
          0                 7           2             4    7     1      -0.1330659002E-02       5    8    1        -0.7545580808E-01      0.1848271748E+00
          0                 8           2             4    7     1      -0.1316079197E-02       5    8    1        -0.7462828551E-01      0.1828002078E+00
          0                 9           2             4    7     1      -0.1338212635E-02       5    8    1        -0.7588258653E-01      0.1858726147E+00
          0                10           2             4    7     1      -0.1411101081E-02       5    8    1        -0.8001485857E-01      0.1959945541E+00
                                                   Max.-Head-Change                         Max.-Flux-Residual
  Residual-Control   Outer-Iter.   Inner-Iter.     Column Row Layer    Maximum-Head-Change  Column Row Layer    Maximum-Flux-Residual          L2-NORM 
          0                11           2             4    7     1      -0.1346749727E-02       5    8    1        -0.7636523125E-01      0.1870547742E+00
          0                12           2             4    7     1      -0.1327083558E-02       5    8    1        -0.7524931374E-01      0.1843213984E+00
          0                13           2             4    7     1      -0.1360005513E-02       5    8    1        -0.7711528055E-01      0.1888920777E+00
          0                14           2             4    7     1      -0.1307504464E-02       5    8    1        -0.7413768498E-01      0.1815984624E+00
          0                15           2             4    7     1      -0.1313287715E-02       5    8    1        -0.7446482399E-01      0.1823998280E+00
          0                16           2             4    7     1      -0.1394957665E-02       5    8    1        -0.7909476339E-01      0.1937408099E+00
          0                17           2             4    7     1      -0.1351493943E-02       5    8    1        -0.7662968170E-01      0.1877025547E+00
          0                18           2             4    7     1      -0.1402703575E-02       5    8    1        -0.7953240744E-01      0.1948127875E+00
          0                19           2             4    7     1      -0.1402426402E-02       5    8    1        -0.7951594516E-01      0.1947724218E+00
          0                20           2             4    7     1      -0.1389183931E-02       5    8    1        -0.7876434106E-01      0.1929313774E+00
                                                   Max.-Head-Change                         Max.-Flux-Residual
  Residual-Control   Outer-Iter.   Inner-Iter.     Column Row Layer    Maximum-Head-Change  Column Row Layer    Maximum-Flux-Residual          L2-NORM 
          0                21           2             4    7     1      -0.1402356047E-02       5    8    1        -0.7951037171E-01      0.1947587819E+00
          0                22           2             4    7     1      -0.1389050056E-02       5    8    1        -0.7875519318E-01      0.1929089694E+00
          0                23           2             4    7     1      -0.1387765967E-02       5    8    1        -0.7868160140E-01      0.1927287179E+00
          0                24           2             4    7     1      -0.1413224323E-02       5    8    1        -0.8012419222E-01      0.1962623295E+00
          0                25           2             4    7     1      -0.1399490366E-02       5    8    1        -0.7934477538E-01      0.1943531363E+00
          0                26           1             4    7     1       0.1577467650E-04       4    7    1         0.9191148411E-03      0.2251753724E-02

    ------------------------------------------------
       NWT REQUIRED           26 OUTER ITERATIONS 
       AND A TOTAL OF         51 INNER ITERATIONS.
    ------------------------------------------------

 NO OUTPUT CONTROL FOR STRESS PERIOD   45   TIME STEP   12
 
 SOLVING FOR HEAD 
                                                   Max.-Head-Change                         Max.-Flux-Residual
  Residual-Control   Outer-Iter.   Inner-Iter.     Column Row Layer    Maximum-Head-Change  Column Row Layer    Maximum-Flux-Residual          L2-NORM 
          0                 1           2             5    8     1       0.7271527140E-01       5    8    1         0.3953907504E+01      0.9435252624E+01
          0                 2           2             5    7     1      -0.9435730099E-01       5    8    1        -0.5181076767E+01      0.1257595687E+02
          0                 3           2             5    7     1       0.6424763399E-02       5    8    1         0.3626410654E+00      0.8801839606E+00
          0                 4           2             4    7     1      -0.1513522851E-02       5    8    1        -0.8619883666E-01      0.2107776769E+00
          0                 5           2             4    7     1      -0.1374527837E-02       4    7    1        -0.7794390491E-01      0.1909166798E+00
          0                 6           2             4    7     1      -0.1304568682E-02       5    8    1        -0.7397701228E-01      0.1812048193E+00
          0                 7           2             4    7     1      -0.1257011055E-02       5    8    1        -0.7127941315E-01      0.1745972013E+00
          0                 8           2             4    7     1      -0.1234455783E-02       5    8    1        -0.6999969802E-01      0.1714625862E+00
          0                 9           2             4    7     1      -0.1241738858E-02       5    8    1        -0.7041196697E-01      0.1724724509E+00
          0                10           2             4    7     1      -0.1288343535E-02       5    8    1        -0.7305390425E-01      0.1789438422E+00
                                                   Max.-Head-Change                         Max.-Flux-Residual
  Residual-Control   Outer-Iter.   Inner-Iter.     Column Row Layer    Maximum-Head-Change  Column Row Layer    Maximum-Flux-Residual          L2-NORM 
          0                11           2             4    7     1      -0.1392818339E-02       5    8    1        -0.7897719819E-01      0.1934528526E+00
          0                12           2             4    7     1      -0.1388948371E-02       5    8    1        -0.7875705878E-01      0.1929135435E+00
          0                13           2             4    7     1      -0.1278772786E-02       5    8    1        -0.7250916677E-01      0.1776094039E+00
          0                14           2             4    7     1      -0.1362357557E-02       5    8    1        -0.7724769222E-01      0.1892164579E+00
          0                15           2             4    7     1      -0.1391851935E-02       5    8    1        -0.7891933246E-01      0.1933110544E+00
          0                16           2             4    7     1      -0.1383048526E-02       5    8    1        -0.7841942059E-01      0.1920865054E+00
          0                17           2             4    7     1      -0.1352935707E-02       5    8    1        -0.7671126695E-01      0.1879024087E+00
          0                18           2             4    7     1      -0.1320774123E-02       5    8    1        -0.7488697032E-01      0.1834338363E+00
          0                19           2             4    7     1      -0.1392722417E-02       5    8    1        -0.7896553154E-01      0.1934242535E+00
          0                20           2             4    7     1      -0.1387040368E-02       5    8    1        -0.7864264746E-01      0.1926332952E+00
                                                   Max.-Head-Change                         Max.-Flux-Residual
  Residual-Control   Outer-Iter.   Inner-Iter.     Column Row Layer    Maximum-Head-Change  Column Row Layer    Maximum-Flux-Residual          L2-NORM 
          0                21           2             4    7     1      -0.1411898375E-02       5    8    1        -0.8005123472E-01      0.1960836217E+00
          0                22           2             4    7     1      -0.1371798332E-02       5    8    1        -0.7777693665E-01      0.1905127328E+00
          0                23           2             4    7     1      -0.1411598607E-02       5    8    1        -0.8003264380E-01      0.1960380959E+00
          0                24           2             4    7     1      -0.1404097909E-02       5    8    1        -0.7960662956E-01      0.1949945462E+00
          0                25           2             4    7     1      -0.1356043613E-02       5    8    1        -0.7688141413E-01      0.1883191668E+00
          0                26           1             4    7     1       0.1534464476E-04       4    7    1         0.8940575872E-03      0.2190356238E-02

    ------------------------------------------------
       NWT REQUIRED           26 OUTER ITERATIONS 
       AND A TOTAL OF         51 INNER ITERATIONS.
    ------------------------------------------------

 NO OUTPUT CONTROL FOR STRESS PERIOD   45   TIME STEP   13
 
 SOLVING FOR HEAD 
                                                   Max.-Head-Change                         Max.-Flux-Residual
  Residual-Control   Outer-Iter.   Inner-Iter.     Column Row Layer    Maximum-Head-Change  Column Row Layer    Maximum-Flux-Residual          L2-NORM 
          0                 1           2             5    8     1       0.7304657748E-01       5    8    1         0.3971219980E+01      0.9496611833E+01
          0                 2           2             5    7     1      -0.9482466582E-01       5    8    1        -0.5205098198E+01      0.1263718436E+02
          0                 3           2             5    7     1       0.6456580150E-02       5    8    1         0.3643220755E+00      0.8844687151E+00
          0                 4           2             4    7     1      -0.1411748419E-02       5    8    1        -0.8042061289E-01      0.1966314565E+00
          0                 5           2             4    7     1      -0.1242151300E-02       4    7    1        -0.7043723436E-01      0.1725292062E+00
          0                 6           2             4    7     1      -0.1412759315E-02       5    8    1        -0.8011174249E-01      0.1962318778E+00
          0                 7           2             4    7     1      -0.1400226994E-02       5    8    1        -0.7940036601E-01      0.1944893018E+00
          0                 8           2             4    7     1      -0.1199632708E-02       5    8    1        -0.6802505550E-01      0.1666256125E+00
          0                 9           2             4    7     1      -0.1213205540E-02       5    8    1        -0.6879386096E-01      0.1685089488E+00
          0                10           2             4    7     1      -0.1263531387E-02       5    8    1        -0.7164682060E-01      0.1754972266E+00
                                                   Max.-Head-Change                         Max.-Flux-Residual
  Residual-Control   Outer-Iter.   Inner-Iter.     Column Row Layer    Maximum-Head-Change  Column Row Layer    Maximum-Flux-Residual          L2-NORM 
          0                11           2             4    7     1      -0.1372046052E-02       5    8    1        -0.7779918910E-01      0.1905673503E+00
          0                12           2             4    7     1      -0.1378872051E-02       5    8    1        -0.7818554551E-01      0.1915136431E+00
          0                13           2             4    7     1      -0.1285236263E-02       5    8    1        -0.7287550655E-01      0.1785067566E+00
          0                14           2             4    7     1      -0.1388398333E-02       5    8    1        -0.7872407778E-01      0.1928328436E+00
          0                15           2             4    7     1      -0.1308828427E-02       5    8    1        -0.7421175394E-01      0.1817798702E+00
          0                16           2             4    7     1      -0.1296195571E-02       5    8    1        -0.7349467975E-01      0.1800234699E+00
          0                17           2             4    7     1      -0.1365108601E-02       5    8    1        -0.7740124734E-01      0.1895925735E+00
          0                18           2             4    7     1      -0.1354118113E-02       5    8    1        -0.7677738963E-01      0.1880643865E+00
          0                19           2             4    7     1      -0.1375301015E-02       5    8    1        -0.7797764605E-01      0.1910044129E+00
          0                20           2             4    7     1      -0.1391564111E-02       5    8    1        -0.7889896524E-01      0.1932611576E+00
                                                   Max.-Head-Change                         Max.-Flux-Residual
  Residual-Control   Outer-Iter.   Inner-Iter.     Column Row Layer    Maximum-Head-Change  Column Row Layer    Maximum-Flux-Residual          L2-NORM 
          0                21           2             4    7     1      -0.1389816503E-02       5    8    1        -0.7879911258E-01      0.1930165576E+00
          0                22           2             4    7     1      -0.1375928174E-02       5    8    1        -0.7801091569E-01      0.1910858795E+00
          0                23           2             4    7     1      -0.1409529781E-02       5    8    1        -0.7991519902E-01      0.1957504122E+00
          0                24           2             4    7     1      -0.1404102045E-02       5    8    1        -0.7960670803E-01      0.1949947402E+00
          0                25           2             4    7     1      -0.1197430013E-02       5    8    1        -0.6788874115E-01      0.1662917090E+00
          0                26           1             4    7     1       0.1361014257E-04       4    7    1         0.7929957649E-03      0.1942747547E-02

    ------------------------------------------------
       NWT REQUIRED           26 OUTER ITERATIONS 
       AND A TOTAL OF         51 INNER ITERATIONS.
    ------------------------------------------------

 NO OUTPUT CONTROL FOR STRESS PERIOD   45   TIME STEP   14
 
 SOLVING FOR HEAD 
                                                   Max.-Head-Change                         Max.-Flux-Residual
  Residual-Control   Outer-Iter.   Inner-Iter.     Column Row Layer    Maximum-Head-Change  Column Row Layer    Maximum-Flux-Residual          L2-NORM 
          0                 1           2             5    8     1       0.7337582202E-01       5    8    1         0.3988437606E+01      0.9557069154E+01
          0                 2           2             5    7     1      -0.9528025915E-01       5    8    1        -0.5228533172E+01      0.1269689137E+02
          0                 3           2             5    7     1       0.6487629538E-02       5    8    1         0.3659639411E+00      0.8886516814E+00
          0                 4           2             4    7     1      -0.1581019703E-02       5    8    1        -0.9001258761E-01      0.2201329044E+00
          0                 5           2             4    7     1      -0.1206338914E-02       4    7    1        -0.6840634246E-01      0.1675548339E+00
          0                 6           2             4    7     1      -0.1377973845E-02       5    8    1        -0.7813904301E-01      0.1913998057E+00
          0                 7           2             4    7     1      -0.1373980590E-02       5    8    1        -0.7791189938E-01      0.1908433442E+00
          0                 8           2             4    7     1      -0.1190188510E-02       5    8    1        -0.6748938305E-01      0.1653135079E+00
          0                 9           2             4    7     1      -0.1215934851E-02       5    8    1        -0.6894848395E-01      0.1688877028E+00
          0                10           2             4    7     1      -0.1283336902E-02       5    8    1        -0.7276971435E-01      0.1782477407E+00
                                                   Max.-Head-Change                         Max.-Flux-Residual
  Residual-Control   Outer-Iter.   Inner-Iter.     Column Row Layer    Maximum-Head-Change  Column Row Layer    Maximum-Flux-Residual          L2-NORM 
          0                11           2             4    7     1      -0.1229180004E-02       5    8    1        -0.6969822449E-01      0.1707241071E+00
          0                12           2             4    7     1      -0.1386077421E-02       5    8    1        -0.7859384544E-01      0.1925138818E+00
          0                13           2             4    7     1      -0.1313403308E-02       5    8    1        -0.7447248068E-01      0.1824185178E+00
          0                14           2             4    7     1      -0.1296863140E-02       5    8    1        -0.7353384768E-01      0.1801194078E+00
          0                15           2             4    7     1      -0.1346809953E-02       5    8    1        -0.7636509647E-01      0.1870545324E+00
          0                16           2             4    7     1      -0.1369072160E-02       5    8    1        -0.7762663418E-01      0.1901446164E+00
          0                17           2             4    7     1      -0.1385330045E-02       5    8    1        -0.7854768579E-01      0.1924007070E+00
          0                18           2             4    7     1      -0.1328412967E-02       5    8    1        -0.7531981598E-01      0.1844940617E+00
          0                19           2             4    7     1      -0.1383000345E-02       5    8    1        -0.7841401182E-01      0.1920733069E+00
          0                20           2             4    7     1      -0.1382595281E-02       5    8    1        -0.7839031275E-01      0.1920152118E+00
                                                   Max.-Head-Change                         Max.-Flux-Residual
  Residual-Control   Outer-Iter.   Inner-Iter.     Column Row Layer    Maximum-Head-Change  Column Row Layer    Maximum-Flux-Residual          L2-NORM 
          0                21           2             4    7     1      -0.1379698939E-02       5    8    1        -0.7822532239E-01      0.1916110719E+00
          0                22           2             4    7     1      -0.1379298791E-02       5    8    1        -0.7820185984E-01      0.1915536028E+00
          0                23           2             4    7     1      -0.1395384806E-02       5    8    1        -0.7911309155E-01      0.1937856555E+00
          0                24           2             4    7     1      -0.1410956301E-02       5    8    1        -0.7999514678E-01      0.1959462281E+00
          0                25           2             4    7     1      -0.8432976507E-03       5    8    1        -0.4781128593E-01      0.1171121918E+00
          0                26           1             4    7     1       0.9613079803E-05       4    7    1         0.5601067207E-03      0.1372170878E-02

    ------------------------------------------------
       NWT REQUIRED           26 OUTER ITERATIONS 
       AND A TOTAL OF         51 INNER ITERATIONS.
    ------------------------------------------------

 NO OUTPUT CONTROL FOR STRESS PERIOD   45   TIME STEP   15
 
 SOLVING FOR HEAD 
                                                   Max.-Head-Change                         Max.-Flux-Residual
  Residual-Control   Outer-Iter.   Inner-Iter.     Column Row Layer    Maximum-Head-Change  Column Row Layer    Maximum-Flux-Residual          L2-NORM 
          0                 1           2             5    8     1       0.7370279145E-01       5    8    1         0.4005547868E+01      0.9616632805E+01
          0                 2           2             5    7     1      -0.9572463765E-01       5    8    1        -0.5251409047E+01      0.1275515122E+02
          0                 3           2             5    7     1       0.6517872471E-02       5    8    1         0.3675642859E+00      0.8927275038E+00
          0                 4           2             4    7     1      -0.1476110571E-02       5    8    1        -0.8405701905E-01      0.2055517770E+00
          0                 5           2             4    7     1      -0.1345427100E-02       4    7    1        -0.7629327411E-01      0.1868738202E+00
          0                 6           2             4    7     1      -0.1308981735E-02       5    8    1        -0.7422680511E-01      0.1818167092E+00
          0                 7           2             4    7     1      -0.1301951432E-02       5    8    1        -0.7382732503E-01      0.1808382805E+00
          0                 8           2             4    7     1      -0.1333466078E-02       5    8    1        -0.7561359376E-01      0.1852137303E+00
          0                 9           2             4    7     1      -0.1208498229E-02       5    8    1        -0.6852678128E-01      0.1678546329E+00
          0                10           2             4    7     1      -0.1290952001E-02       5    8    1        -0.7320136343E-01      0.1793050712E+00
                                                   Max.-Head-Change                         Max.-Flux-Residual
  Residual-Control   Outer-Iter.   Inner-Iter.     Column Row Layer    Maximum-Head-Change  Column Row Layer    Maximum-Flux-Residual          L2-NORM 
          0                11           2             4    7     1      -0.1258266379E-02       5    8    1        -0.7134735912E-01      0.1747636387E+00
          0                12           2             4    7     1      -0.1271397893E-02       5    8    1        -0.7209120437E-01      0.1765857081E+00
          0                13           2             4    7     1      -0.1344705871E-02       5    8    1        -0.7624714140E-01      0.1867656209E+00
          0                14           2             4    7     1      -0.1359244922E-02       5    8    1        -0.7707081266E-01      0.1887831384E+00
          0                15           2             4    7     1      -0.1326446028E-02       5    8    1        -0.7521036418E-01      0.1842259804E+00
          0                16           2             4    7     1      -0.1374507202E-02       5    8    1        -0.7793463353E-01      0.1908990755E+00
          0                17           2             4    7     1      -0.1324727962E-02       5    8    1        -0.7511147617E-01      0.1839837426E+00
          0                18           2             4    7     1      -0.1377187781E-02       5    8    1        -0.7808507430E-01      0.1912675805E+00
          0                19           2             4    7     1      -0.1412621006E-02       5    8    1        -0.8009332437E-01      0.1961867254E+00
          0                20           2             4    7     1      -0.1414050911E-02       5    8    1        -0.8017362837E-01      0.1963834034E+00
                                                   Max.-Head-Change                         Max.-Flux-Residual
  Residual-Control   Outer-Iter.   Inner-Iter.     Column Row Layer    Maximum-Head-Change  Column Row Layer    Maximum-Flux-Residual          L2-NORM 
          0                21           2             4    7     1      -0.1386917674E-02       5    8    1        -0.7863447426E-01      0.1926132615E+00
          0                22           2             4    7     1      -0.1382345813E-02       5    8    1        -0.7837447002E-01      0.1919764050E+00
          0                23           2             4    7     1      -0.1399881579E-02       5    8    1        -0.7936789030E-01      0.1944097803E+00
          0                24           2             4    7     1      -0.1806358515E-02       5    8    1        -0.1024122789E+00      0.2508567559E+00
          0                25           1             4    7     1       0.1958051167E-04       4    7    1         0.1140860146E-02      0.2795136451E-02

    ------------------------------------------------
       NWT REQUIRED           25 OUTER ITERATIONS 
       AND A TOTAL OF         49 INNER ITERATIONS.
    ------------------------------------------------

 NO OUTPUT CONTROL FOR STRESS PERIOD   45   TIME STEP   16
 
 SOLVING FOR HEAD 
                                                   Max.-Head-Change                         Max.-Flux-Residual
  Residual-Control   Outer-Iter.   Inner-Iter.     Column Row Layer    Maximum-Head-Change  Column Row Layer    Maximum-Flux-Residual          L2-NORM 
          0                 1           2             5    8     1       0.7402717301E-01       5    8    1         0.4022532376E+01      0.9675302085E+01
          0                 2           2             5    7     1      -0.9615835924E-01       5    8    1        -0.5273751166E+01      0.1281203133E+02
          0                 3           2             5    7     1       0.6547415382E-02       5    8    1         0.3691286984E+00      0.8967103142E+00
          0                 4           2             4    7     1      -0.1647212154E-02       5    8    1        -0.9375311427E-01      0.2293078827E+00
          0                 5           2             4    7     1      -0.1310735157E-02       4    7    1        -0.7432591752E-01      0.1820550721E+00
          0                 6           2             4    7     1      -0.1286374866E-02       5    8    1        -0.7294471455E-01      0.1786762753E+00
          0                 7           2             4    7     1      -0.1289828892E-02       5    8    1        -0.7313977102E-01      0.1791541405E+00
          0                 8           2             4    7     1      -0.1334690577E-02       5    8    1        -0.7568287748E-01      0.1853834488E+00
          0                 9           2             4    7     1      -0.1231148165E-02       5    8    1        -0.6981097772E-01      0.1710002572E+00
          0                10           2             4    7     1      -0.1340340814E-02       5    8    1        -0.7600171843E-01      0.1861644938E+00
                                                   Max.-Head-Change                         Max.-Flux-Residual
  Residual-Control   Outer-Iter.   Inner-Iter.     Column Row Layer    Maximum-Head-Change  Column Row Layer    Maximum-Flux-Residual          L2-NORM 
          0                11           2             4    7     1      -0.1348420664E-02       5    8    1        -0.7645919541E-01      0.1872849904E+00
          0                12           2             4    7     1      -0.1257561360E-02       5    8    1        -0.7130658274E-01      0.1746637171E+00
          0                13           2             4    7     1      -0.1358861781E-02       5    8    1        -0.7704963887E-01      0.1887313438E+00
          0                14           2             4    7     1      -0.1279493582E-02       5    8    1        -0.7254874802E-01      0.1777063770E+00
          0                15           2             4    7     1      -0.1387648134E-02       5    8    1        -0.7868031173E-01      0.1927256433E+00
          0                16           2             4    7     1      -0.1388419610E-02       5    8    1        -0.7872335873E-01      0.1928309994E+00
          0                17           2             4    7     1      -0.1404321529E-02       5    8    1        -0.7962419534E-01      0.1950375922E+00
          0                18           2             4    7     1      -0.1382100466E-02       5    8    1        -0.7836352688E-01      0.1919495855E+00
          0                19           2             4    7     1      -0.1360425998E-02       5    8    1        -0.7713384493E-01      0.1889375104E+00
          0                20           2             4    7     1      -0.1379155873E-02       5    8    1        -0.7819499463E-01      0.1915368016E+00
                                                   Max.-Head-Change                         Max.-Flux-Residual
  Residual-Control   Outer-Iter.   Inner-Iter.     Column Row Layer    Maximum-Head-Change  Column Row Layer    Maximum-Flux-Residual          L2-NORM 
          0                21           2             4    7     1      -0.1392759158E-02       5    8    1        -0.7896549384E-01      0.1934241161E+00
          0                22           2             4    7     1      -0.1404308754E-02       5    8    1        -0.7961953704E-01      0.1950261781E+00
          0                23           2             4    7     1      -0.1406599494E-02       5    8    1        -0.7974863204E-01      0.1953423863E+00
          0                24           2             4    7     1      -0.1151863407E-02       5    8    1        -0.6530564027E-01      0.1599644287E+00
          0                25           1             4    7     1       0.1322417282E-04       4    7    1         0.7705112346E-03      0.1887644184E-02

    ------------------------------------------------
       NWT REQUIRED           25 OUTER ITERATIONS 
       AND A TOTAL OF         49 INNER ITERATIONS.
    ------------------------------------------------

 NO OUTPUT CONTROL FOR STRESS PERIOD   45   TIME STEP   17
 
 SOLVING FOR HEAD 
                                                   Max.-Head-Change                         Max.-Flux-Residual
  Residual-Control   Outer-Iter.   Inner-Iter.     Column Row Layer    Maximum-Head-Change  Column Row Layer    Maximum-Flux-Residual          L2-NORM 
          0                 1           2             5    8     1       0.7434908842E-01       5    8    1         0.4039397441E+01      0.9733100966E+01
          0                 2           2             5    7     1      -0.9658186415E-01       5    8    1        -0.5295583523E+01      0.1286759189E+02
          0                 3           2             5    7     1       0.6576254030E-02       5    8    1         0.3706569508E+00      0.9005994716E+00
          0                 4           2             4    7     1      -0.1539629215E-02       5    8    1        -0.8764630079E-01      0.2143558327E+00
          0                 5           2             4    7     1      -0.1188563873E-02       4    7    1        -0.6739800938E-01      0.1650852533E+00
          0                 6           2             4    7     1      -0.1379333930E-02       5    8    1        -0.7821571264E-01      0.1915876230E+00
          0                 7           2             4    7     1      -0.1186942042E-02       5    8    1        -0.6730559217E-01      0.1648633048E+00
          0                 8           2             4    7     1      -0.1208254590E-02       5    8    1        -0.6851327739E-01      0.1678216719E+00
          0                 9           2             4    7     1      -0.1269271355E-02       5    8    1        -0.7197246022E-01      0.1762948811E+00
          0                10           2             4    7     1      -0.1394805632E-02       5    8    1        -0.7908990265E-01      0.1937289352E+00
                                                   Max.-Head-Change                         Max.-Flux-Residual
  Residual-Control   Outer-Iter.   Inner-Iter.     Column Row Layer    Maximum-Head-Change  Column Row Layer    Maximum-Flux-Residual          L2-NORM 
          0                11           2             4    7     1      -0.1247530050E-02       5    8    1        -0.7073839825E-01      0.1732719169E+00
          0                12           2             4    7     1      -0.1291117088E-02       5    8    1        -0.7320903108E-01      0.1793238246E+00
          0                13           2             4    7     1      -0.1407977931E-02       5    8    1        -0.7983445165E-01      0.1955526841E+00
          0                14           2             4    7     1      -0.1349687900E-02       5    8    1        -0.7652868672E-01      0.1874551581E+00
          0                15           2             4    7     1      -0.1369497069E-02       5    8    1        -0.7765105711E-01      0.1902044416E+00
          0                16           2             4    7     1      -0.1379209857E-02       5    8    1        -0.7820101261E-01      0.1915515344E+00
          0                17           2             4    7     1      -0.1406149213E-02       5    8    1        -0.7972766921E-01      0.1952910569E+00
          0                18           2             4    7     1      -0.1401221079E-02       5    8    1        -0.7944748495E-01      0.1946047278E+00
          0                19           2             4    7     1      -0.1406019144E-02       5    8    1        -0.7971873278E-01      0.1952691512E+00
          0                20           2             4    7     1      -0.1411087963E-02       5    8    1        -0.8000533443E-01      0.1959711751E+00
                                                   Max.-Head-Change                         Max.-Flux-Residual
  Residual-Control   Outer-Iter.   Inner-Iter.     Column Row Layer    Maximum-Head-Change  Column Row Layer    Maximum-Flux-Residual          L2-NORM 
          0                21           2             4    7     1      -0.1385850758E-02       5    8    1        -0.7857368931E-01      0.1924643716E+00
          0                22           2             4    7     1      -0.1397293275E-02       5    8    1        -0.7922163577E-01      0.1940515295E+00
          0                23           2             4    7     1      -0.2389101571E-02       5    8    1        -0.1354516591E+00      0.3317863777E+00
          0                24           1             4    7     1       0.2615238971E-04       4    7    1         0.1523780828E-02      0.3733293916E-02

    ------------------------------------------------
       NWT REQUIRED           24 OUTER ITERATIONS 
       AND A TOTAL OF         47 INNER ITERATIONS.
    ------------------------------------------------

 NO OUTPUT CONTROL FOR STRESS PERIOD   45   TIME STEP   18
 
 SOLVING FOR HEAD 
                                                   Max.-Head-Change                         Max.-Flux-Residual
  Residual-Control   Outer-Iter.   Inner-Iter.     Column Row Layer    Maximum-Head-Change  Column Row Layer    Maximum-Flux-Residual          L2-NORM 
          0                 1           2             5    8     1       0.7466812730E-01       5    8    1         0.4056119255E+01      0.9790021039E+01
          0                 2           2             5    7     1      -0.9699564094E-01       5    8    1        -0.5316926627E+01      0.1292188969E+02
          0                 3           2             5    7     1       0.6604421681E-02       5    8    1         0.3721504789E+00      0.9043991077E+00
          0                 4           2             4    7     1      -0.1443016785E-02       5    8    1        -0.8216177007E-01      0.2009278846E+00
          0                 5           2             4    7     1      -0.1319962596E-02       4    7    1        -0.7484887172E-01      0.1833360907E+00
          0                 6           2             4    7     1      -0.1314929361E-02       5    8    1        -0.7456363059E-01      0.1826417816E+00
          0                 7           2             4    7     1      -0.1348621687E-02       5    8    1        -0.7647331539E-01      0.1873196008E+00
          0                 8           2             4    7     1      -0.1222508615E-02       5    8    1        -0.6932152834E-01      0.1698013461E+00
          0                 9           2             4    7     1      -0.1309213666E-02       5    8    1        -0.7423718208E-01      0.1818422877E+00
          0                10           2             4    7     1      -0.1279157579E-02       5    8    1        -0.7253226362E-01      0.1776660362E+00
                                                   Max.-Head-Change                         Max.-Flux-Residual
  Residual-Control   Outer-Iter.   Inner-Iter.     Column Row Layer    Maximum-Head-Change  Column Row Layer    Maximum-Flux-Residual          L2-NORM 
          0                11           2             4    7     1      -0.1297628958E-02       5    8    1        -0.7357888249E-01      0.1802297445E+00
          0                12           2             4    7     1      -0.1381389207E-02       5    8    1        -0.7832748403E-01      0.1918613787E+00
          0                13           2             4    7     1      -0.1409865187E-02       5    8    1        -0.7994137993E-01      0.1958145352E+00
          0                14           2             4    7     1      -0.1396668692E-02       5    8    1        -0.7919236437E-01      0.1939798099E+00
          0                15           2             4    7     1      -0.1358303058E-02       5    8    1        -0.7701625394E-01      0.1886494613E+00
          0                16           2             4    7     1      -0.1313059736E-02       5    8    1        -0.7445021063E-01      0.1823639946E+00
          0                17           2             4    7     1      -0.1369144451E-02       5    8    1        -0.7762936036E-01      0.1901513226E+00
          0                18           2             4    7     1      -0.1409998255E-02       5    8    1        -0.7994496177E-01      0.1958233188E+00
          0                19           2             4    7     1      -0.1356255363E-02       5    8    1        -0.7689711919E-01      0.1883576305E+00
          0                20           2             4    7     1      -0.1415151698E-02       5    8    1        -0.8023555155E-01      0.1965351286E+00
                                                   Max.-Head-Change                         Max.-Flux-Residual
  Residual-Control   Outer-Iter.   Inner-Iter.     Column Row Layer    Maximum-Head-Change  Column Row Layer    Maximum-Flux-Residual          L2-NORM 
          0                21           2             4    7     1      -0.1388139260E-02       5    8    1        -0.7870329969E-01      0.1927818461E+00
          0                22           2             4    7     1      -0.1411126919E-02       5    8    1        -0.8000580035E-01      0.1959723309E+00
          0                23           2             4    7     1      -0.1920569887E-02       5    8    1        -0.1088879596E+00      0.2667188599E+00
          0                24           1             4    7     1       0.2114781591E-04       4    7    1         0.1232186151E-02      0.3018845976E-02

    ------------------------------------------------
       NWT REQUIRED           24 OUTER ITERATIONS 
       AND A TOTAL OF         47 INNER ITERATIONS.
    ------------------------------------------------

 NO OUTPUT CONTROL FOR STRESS PERIOD   45   TIME STEP   19
 
 SOLVING FOR HEAD 
                                                   Max.-Head-Change                         Max.-Flux-Residual
  Residual-Control   Outer-Iter.   Inner-Iter.     Column Row Layer    Maximum-Head-Change  Column Row Layer    Maximum-Flux-Residual          L2-NORM 
          0                 1           2             5    8     1       0.7498431578E-01       5    8    1         0.4072698882E+01      0.9846080314E+01
          0                 2           2             5    7     1      -0.9740009589E-01       5    8    1        -0.5337802517E+01      0.1297498307E+02
          0                 3           2             5    7     1       0.6631980225E-02       5    8    1         0.3736127339E+00      0.9081180475E+00
          0                 4           2             4    7     1      -0.1602549892E-02       5    8    1        -0.9120232748E-01      0.2230776944E+00
          0                 5           2             4    7     1      -0.1288587167E-02       4    7    1        -0.7306959633E-01      0.1789780265E+00
          0                 6           2             4    7     1      -0.1294407741E-02       5    8    1        -0.7339979704E-01      0.1797910145E+00
          0                 7           2             4    7     1      -0.1338028317E-02       5    8    1        -0.7587247641E-01      0.1858478674E+00
          0                 8           2             4    7     1      -0.1229801754E-02       5    8    1        -0.6973494143E-01      0.1708140054E+00
          0                 9           2             4    7     1      -0.1335999784E-02       5    8    1        -0.7575590322E-01      0.1855623739E+00
          0                10           2             4    7     1      -0.1337214569E-02       5    8    1        -0.7582411753E-01      0.1857293777E+00
                                                   Max.-Head-Change                         Max.-Flux-Residual
  Residual-Control   Outer-Iter.   Inner-Iter.     Column Row Layer    Maximum-Head-Change  Column Row Layer    Maximum-Flux-Residual          L2-NORM 
          0                11           2             4    7     1      -0.1403113319E-02       5    8    1        -0.7955993961E-01      0.1948802374E+00
          0                12           2             4    7     1      -0.1397808710E-02       5    8    1        -0.7925842417E-01      0.1941416270E+00
          0                13           2             4    7     1      -0.1331826289E-02       5    8    1        -0.7551638943E-01      0.1849755585E+00
          0                14           2             4    7     1      -0.1337730516E-02       5    8    1        -0.7585036366E-01      0.1857936760E+00
          0                15           2             4    7     1      -0.1324888954E-02       5    8    1        -0.7512150959E-01      0.1840083489E+00
          0                16           2             4    7     1      -0.1414585679E-02       5    8    1        -0.8020646670E-01      0.1964639084E+00
          0                17           2             4    7     1      -0.1388806000E-02       5    8    1        -0.7874407435E-01      0.1928817233E+00
          0                18           2             4    7     1      -0.1363165292E-02       5    8    1        -0.7728950114E-01      0.1893187845E+00
          0                19           2             4    7     1      -0.1377521868E-02       5    8    1        -0.7810269713E-01      0.1913107186E+00
          0                20           2             4    7     1      -0.1386791131E-02       5    8    1        -0.7862747273E-01      0.1925961390E+00
                                                   Max.-Head-Change                         Max.-Flux-Residual
  Residual-Control   Outer-Iter.   Inner-Iter.     Column Row Layer    Maximum-Head-Change  Column Row Layer    Maximum-Flux-Residual          L2-NORM 
          0                21           2             4    7     1      -0.1403148263E-02       5    8    1        -0.7955408779E-01      0.1948658661E+00
          0                22           2             4    7     1      -0.1402257122E-02       5    8    1        -0.7950278913E-01      0.1947401981E+00
          0                23           2             4    7     1      -0.1370123413E-02       5    8    1        -0.7768018030E-01      0.1902757382E+00
          0                24           1             4    7     1       0.1585454034E-04       4    7    1         0.9237745894E-03      0.2263118211E-02

    ------------------------------------------------
       NWT REQUIRED           24 OUTER ITERATIONS 
       AND A TOTAL OF         47 INNER ITERATIONS.
    ------------------------------------------------

 NO OUTPUT CONTROL FOR STRESS PERIOD   45   TIME STEP   20
 
 SOLVING FOR HEAD 
                                                   Max.-Head-Change                         Max.-Flux-Residual
  Residual-Control   Outer-Iter.   Inner-Iter.     Column Row Layer    Maximum-Head-Change  Column Row Layer    Maximum-Flux-Residual          L2-NORM 
          0                 1           2             5    8     1       0.7529768766E-01       5    8    1         0.4089127201E+01      0.9901264770E+01
          0                 2           2             5    7     1      -0.9779564473E-01       5    8    1        -0.5358229837E+01      0.1302691505E+02
          0                 3           2             5    7     1       0.6658906637E-02       5    8    1         0.3750421564E+00      0.9117520786E+00
          0                 4           2             4    7     1      -0.1503665437E-02       5    8    1        -0.8558928985E-01      0.2093345980E+00
          0                 5           2             4    7     1      -0.1174024389E-02       4    7    1        -0.6657317383E-01      0.1630651269E+00
          0                 6           2             4    7     1      -0.1383982747E-02       5    8    1        -0.7847888463E-01      0.1922322740E+00
          0                 7           2             4    7     1      -0.1237883244E-02       5    8    1        -0.7019379533E-01      0.1719379250E+00
          0                 8           2             4    7     1      -0.1313378270E-02       5    8    1        -0.7447380656E-01      0.1824218871E+00
          0                 9           2             4    7     1      -0.1260650895E-02       5    8    1        -0.7148334250E-01      0.1750967130E+00
          0                10           2             4    7     1      -0.1248732235E-02       5    8    1        -0.7080677940E-01      0.1734395225E+00
                                                   Max.-Head-Change                         Max.-Flux-Residual
  Residual-Control   Outer-Iter.   Inner-Iter.     Column Row Layer    Maximum-Head-Change  Column Row Layer    Maximum-Flux-Residual          L2-NORM 
          0                11           2             4    7     1      -0.1286356995E-02       5    8    1        -0.7293945796E-01      0.1786635038E+00
          0                12           2             4    7     1      -0.1397289167E-02       5    8    1        -0.7922873993E-01      0.1940690045E+00
          0                13           2             4    7     1      -0.1326419440E-02       5    8    1        -0.7520968662E-01      0.1842242904E+00
          0                14           2             4    7     1      -0.1327432613E-02       5    8    1        -0.7526633357E-01      0.1843631051E+00
          0                15           2             4    7     1      -0.1306630396E-02       5    8    1        -0.7408611879E-01      0.1814721782E+00
          0                16           2             4    7     1      -0.1382922508E-02       5    8    1        -0.7841104523E-01      0.1920660566E+00
          0                17           2             4    7     1      -0.1335246087E-02       5    8    1        -0.7570715579E-01      0.1854428477E+00
          0                18           2             4    7     1      -0.1344476467E-02       5    8    1        -0.7622971071E-01      0.1867228801E+00
          0                19           2             4    7     1      -0.1386888930E-02       5    8    1        -0.7863363157E-01      0.1926112502E+00
          0                20           2             4    7     1      -0.1372518926E-02       5    8    1        -0.7781815467E-01      0.1906137155E+00
                                                   Max.-Head-Change                         Max.-Flux-Residual
  Residual-Control   Outer-Iter.   Inner-Iter.     Column Row Layer    Maximum-Head-Change  Column Row Layer    Maximum-Flux-Residual          L2-NORM 
          0                21           2             4    7     1      -0.1397640097E-02       5    8    1        -0.7924164399E-01      0.1941005502E+00
          0                22           2             4    7     1      -0.1401388414E-02       5    8    1        -0.7945339208E-01      0.1946192048E+00
          0                23           2             4    7     1      -0.1619376168E-02       5    8    1        -0.9181140677E-01      0.2248900305E+00
          0                24           1             4    7     1       0.1797565701E-04       4    7    1         0.1047356530E-02      0.2565982935E-02

    ------------------------------------------------
       NWT REQUIRED           24 OUTER ITERATIONS 
       AND A TOTAL OF         47 INNER ITERATIONS.
    ------------------------------------------------

 NO OUTPUT CONTROL FOR STRESS PERIOD   45   TIME STEP   21
 
 SOLVING FOR HEAD 
                                                   Max.-Head-Change                         Max.-Flux-Residual
  Residual-Control   Outer-Iter.   Inner-Iter.     Column Row Layer    Maximum-Head-Change  Column Row Layer    Maximum-Flux-Residual          L2-NORM 
          0                 1           2             5    8     1       0.7560835796E-01       5    8    1         0.4105418730E+01      0.9955596609E+01
          0                 2           2             5    7     1      -0.9818264118E-01       5    8    1        -0.5378228630E+01      0.1307773789E+02
          0                 3           2             5    7     1       0.6685259224E-02       5    8    1         0.3764420593E+00      0.9153096150E+00
          0                 4           2             4    7     1      -0.1665116462E-02       5    8    1        -0.9473887696E-01      0.2317511438E+00
          0                 5           2             4    7     1      -0.1393198523E-02       4    7    1        -0.7900131447E-01      0.1935079776E+00
          0                 6           2             4    7     1      -0.1230058781E-02       5    8    1        -0.6975074405E-01      0.1708526207E+00
          0                 7           2             4    7     1      -0.1283306733E-02       5    8    1        -0.7276923431E-01      0.1782465622E+00
          0                 8           2             4    7     1      -0.1395526343E-02       5    8    1        -0.7913177492E-01      0.1938314913E+00
          0                 9           2             4    7     1      -0.1400021045E-02       5    8    1        -0.7938593548E-01      0.1944539694E+00
          0                10           2             4    7     1      -0.1296341903E-02       5    8    1        -0.7350632404E-01      0.1800519230E+00
                                                   Max.-Head-Change                         Max.-Flux-Residual
  Residual-Control   Outer-Iter.   Inner-Iter.     Column Row Layer    Maximum-Head-Change  Column Row Layer    Maximum-Flux-Residual          L2-NORM 
          0                11           2             4    7     1      -0.1396734524E-02       5    8    1        -0.7919793700E-01      0.1939935500E+00
          0                12           2             4    7     1      -0.1300426836E-02       5    8    1        -0.7373649038E-01      0.1806157123E+00
          0                13           2             4    7     1      -0.1397802956E-02       5    8    1        -0.7925695390E-01      0.1941381081E+00
          0                14           2             4    7     1      -0.1371911853E-02       5    8    1        -0.7778822341E-01      0.1905403891E+00
          0                15           2             4    7     1      -0.1346507950E-02       5    8    1        -0.7634704790E-01      0.1870102682E+00
          0                16           2             4    7     1      -0.1344292641E-02       5    8    1        -0.7622066955E-01      0.1867007246E+00
          0                17           2             4    7     1      -0.1397674629E-02       5    8    1        -0.7924657663E-01      0.1941126532E+00
          0                18           2             4    7     1      -0.1362316553E-02       5    8    1        -0.7724111371E-01      0.1892002512E+00
          0                19           2             4    7     1      -0.1398277403E-02       5    8    1        -0.7927919639E-01      0.1941925427E+00
          0                20           2             4    7     1      -0.1395142160E-02       5    8    1        -0.7910068284E-01      0.1937552464E+00
                                                   Max.-Head-Change                         Max.-Flux-Residual
  Residual-Control   Outer-Iter.   Inner-Iter.     Column Row Layer    Maximum-Head-Change  Column Row Layer    Maximum-Flux-Residual          L2-NORM 
          0                21           2             4    7     1      -0.1403205938E-02       5    8    1        -0.7955708045E-01      0.1948731912E+00
          0                22           2             4    7     1      -0.1915925007E-02       5    8    1        -0.1086251029E+00      0.2660750027E+00
          0                23           1             4    7     1       0.2134109860E-04       4    7    1         0.1243454750E-02      0.3046421405E-02

    ------------------------------------------------
       NWT REQUIRED           23 OUTER ITERATIONS 
       AND A TOTAL OF         45 INNER ITERATIONS.
    ------------------------------------------------

 NO OUTPUT CONTROL FOR STRESS PERIOD   45   TIME STEP   22
 
 SOLVING FOR HEAD 
                                                   Max.-Head-Change                         Max.-Flux-Residual
  Residual-Control   Outer-Iter.   Inner-Iter.     Column Row Layer    Maximum-Head-Change  Column Row Layer    Maximum-Flux-Residual          L2-NORM 
          0                 1           2             5    8     1       0.7591577183E-01       5    8    1         0.4121546523E+01      0.1000909068E+02
          0                 2           2             5    7     1      -0.9856144099E-01       5    8    1        -0.5397813845E+01      0.1312749671E+02
          0                 3           2             5    7     1       0.6711062215E-02       5    8    1         0.3778134891E+00      0.9187939637E+00
          0                 4           2             4    7     1      -0.1564242197E-02       5    8    1        -0.8901331802E-01      0.2177320831E+00
          0                 5           2             4    7     1      -0.1271092485E-02       4    7    1        -0.7207716823E-01      0.1765473661E+00
          0                 6           2             4    7     1      -0.1306443077E-02       5    8    1        -0.7408184844E-01      0.1814617080E+00
          0                 7           2             4    7     1      -0.1392181431E-02       5    8    1        -0.7894276559E-01      0.1933684992E+00
          0                 8           2             4    7     1      -0.1346674903E-02       5    8    1        -0.7636168570E-01      0.1870461046E+00
          0                 9           2             4    7     1      -0.1351163401E-02       5    8    1        -0.7661540331E-01      0.1876676214E+00
          0                10           2             4    7     1      -0.1248291471E-02       5    8    1        -0.7078160491E-01      0.1733777884E+00
                                                   Max.-Head-Change                         Max.-Flux-Residual
  Residual-Control   Outer-Iter.   Inner-Iter.     Column Row Layer    Maximum-Head-Change  Column Row Layer    Maximum-Flux-Residual          L2-NORM 
          0                11           2             4    7     1      -0.1337934918E-02       5    8    1        -0.7586374165E-01      0.1858265094E+00
          0                12           2             4    7     1      -0.1376403143E-02       5    8    1        -0.7804424377E-01      0.1911675533E+00
          0                13           2             4    7     1      -0.1378906834E-02       5    8    1        -0.7818545774E-01      0.1915134285E+00
          0                14           2             4    7     1      -0.1362778454E-02       5    8    1        -0.7727020977E-01      0.1892715374E+00
          0                15           2             4    7     1      -0.1349225661E-02       5    8    1        -0.7650100082E-01      0.1873873807E+00
          0                16           2             4    7     1      -0.1364503207E-02       5    8    1        -0.7736645073E-01      0.1895073013E+00
          0                17           2             4    7     1      -0.1369572661E-02       5    8    1        -0.7765312567E-01      0.1902094962E+00
          0                18           2             4    7     1      -0.1409624452E-02       5    8    1        -0.7992319835E-01      0.1957700121E+00
          0                19           2             4    7     1      -0.1390895022E-02       5    8    1        -0.7886053569E-01      0.1931670000E+00
          0                20           2             4    7     1      -0.1383515247E-02       5    8    1        -0.7844133379E-01      0.1921401852E+00
                                                   Max.-Head-Change                         Max.-Flux-Residual
  Residual-Control   Outer-Iter.   Inner-Iter.     Column Row Layer    Maximum-Head-Change  Column Row Layer    Maximum-Flux-Residual          L2-NORM 
          0                21           2             4    7     1      -0.1405418182E-02       5    8    1        -0.7968235851E-01      0.1951800673E+00
          0                22           2             4    7     1      -0.1773661145E-02       5    8    1        -0.1005592257E+00      0.2463177184E+00
          0                23           1             4    7     1       0.1982386820E-04       4    7    1         0.1155050786E-02      0.2829819388E-02

    ------------------------------------------------
       NWT REQUIRED           23 OUTER ITERATIONS 
       AND A TOTAL OF         45 INNER ITERATIONS.
    ------------------------------------------------

 NO OUTPUT CONTROL FOR STRESS PERIOD   45   TIME STEP   23
 
 SOLVING FOR HEAD 
                                                   Max.-Head-Change                         Max.-Flux-Residual
  Residual-Control   Outer-Iter.   Inner-Iter.     Column Row Layer    Maximum-Head-Change  Column Row Layer    Maximum-Flux-Residual          L2-NORM 
          0                 1           2             5    8     1       0.7622032929E-01       5    8    1         0.4137530225E+01      0.1006177691E+02
          0                 2           2             4    7     1      -0.9893741249E-01       5    8    1        -0.5417004135E+01      0.1317623384E+02
          0                 3           2             4    7     1       0.6736666166E-02       5    8    1         0.3791572743E+00      0.9222066767E+00
          0                 4           2             4    7     1      -0.1473133237E-02       5    8    1        -0.8384166689E-01      0.2050696554E+00
          0                 5           2             4    7     1      -0.1398882389E-02       4    7    1        -0.7932332714E-01      0.1942967764E+00
          0                 6           2             4    7     1      -0.1256572530E-02       5    8    1        -0.7125395026E-01      0.1745346997E+00
          0                 7           2             4    7     1      -0.1338568528E-02       5    8    1        -0.7590254383E-01      0.1859215509E+00
          0                 8           2             4    7     1      -0.1291326637E-02       5    8    1        -0.7322310105E-01      0.1793582144E+00
          0                 9           2             4    7     1      -0.1288949838E-02       5    8    1        -0.7308756854E-01      0.1790262686E+00
          0                10           2             4    7     1      -0.1343305720E-02       5    8    1        -0.7616892802E-01      0.1865740266E+00
                                                   Max.-Head-Change                         Max.-Flux-Residual
  Residual-Control   Outer-Iter.   Inner-Iter.     Column Row Layer    Maximum-Head-Change  Column Row Layer    Maximum-Flux-Residual          L2-NORM 
          0                11           2             4    7     1      -0.1321791922E-02       5    8    1        -0.7494835367E-01      0.1835842002E+00
          0                12           2             4    7     1      -0.1371414058E-02       5    8    1        -0.7776120911E-01      0.1904742786E+00
          0                13           2             4    7     1      -0.1389728992E-02       5    8    1        -0.7879893866E-01      0.1930161469E+00
          0                14           2             4    7     1      -0.1398283760E-02       5    8    1        -0.7928322385E-01      0.1942023857E+00
          0                15           2             4    7     1      -0.1322627941E-02       5    8    1        -0.7499282787E-01      0.1836930997E+00
          0                16           2             4    7     1      -0.1355510446E-02       5    8    1        -0.7685641997E-01      0.1882580081E+00
          0                17           2             4    7     1      -0.1386644910E-02       5    8    1        -0.7862094806E-01      0.1925801732E+00
          0                18           2             4    7     1      -0.1406767528E-02       5    8    1        -0.7976109321E-01      0.1953729237E+00
          0                19           2             4    7     1      -0.1383028383E-02       5    8    1        -0.7841438326E-01      0.1920741571E+00
          0                20           2             4    7     1      -0.1411389594E-02       5    8    1        -0.8002156529E-01      0.1960109517E+00
                                                   Max.-Head-Change                         Max.-Flux-Residual
  Residual-Control   Outer-Iter.   Inner-Iter.     Column Row Layer    Maximum-Head-Change  Column Row Layer    Maximum-Flux-Residual          L2-NORM 
          0                21           2             4    7     1      -0.2954841100E-02       5    8    1        -0.1675279296E+00      0.4103568612E+00
          0                22           1             4    7     1       0.3310165535E-04       4    7    1         0.1928703728E-02      0.4725277729E-02

    ------------------------------------------------
       NWT REQUIRED           22 OUTER ITERATIONS 
       AND A TOTAL OF         43 INNER ITERATIONS.
    ------------------------------------------------

 NO OUTPUT CONTROL FOR STRESS PERIOD   45   TIME STEP   24
 
 SOLVING FOR HEAD 
                                                   Max.-Head-Change                         Max.-Flux-Residual
  Residual-Control   Outer-Iter.   Inner-Iter.     Column Row Layer    Maximum-Head-Change  Column Row Layer    Maximum-Flux-Residual          L2-NORM 
          0                 1           2             5    8     1       0.7652155147E-01       5    8    1         0.4153342605E+01      0.1011366001E+02
          0                 2           2             4    7     1      -0.9932062433E-01       5    8    1        -0.5435811561E+01      0.1322398655E+02
          0                 3           2             4    7     1       0.6762752301E-02       5    8    1         0.3804733054E+00      0.9255482002E+00
          0                 4           2             4    7     1      -0.1624981329E-02       5    8    1        -0.9244709028E-01      0.2261528617E+00
          0                 5           2             4    7     1      -0.1373196177E-02       4    7    1        -0.7786667188E-01      0.1907289473E+00
          0                 6           2             4    7     1      -0.1248751950E-02       5    8    1        -0.7081034536E-01      0.1734481198E+00
          0                 7           2             4    7     1      -0.1343749330E-02       5    8    1        -0.7619617898E-01      0.1866408122E+00
          0                 8           2             4    7     1      -0.1319190643E-02       5    8    1        -0.7480295111E-01      0.1832280364E+00
          0                 9           2             4    7     1      -0.1348927390E-02       5    8    1        -0.7648833414E-01      0.1873563868E+00
          0                10           2             4    7     1      -0.1285401997E-02       5    8    1        -0.7288559541E-01      0.1785314920E+00
                                                   Max.-Head-Change                         Max.-Flux-Residual
  Residual-Control   Outer-Iter.   Inner-Iter.     Column Row Layer    Maximum-Head-Change  Column Row Layer    Maximum-Flux-Residual          L2-NORM 
          0                11           2             4    7     1      -0.1275698222E-02       5    8    1        -0.7233461001E-01      0.1771819095E+00
          0                12           2             4    7     1      -0.1334445984E-02       5    8    1        -0.7566492837E-01      0.1853394949E+00
          0                13           2             4    7     1      -0.1368959683E-02       5    8    1        -0.7762115535E-01      0.1901312064E+00
          0                14           2             4    7     1      -0.1402857121E-02       5    8    1        -0.7954238180E-01      0.1948372055E+00
          0                15           2             4    7     1      -0.1368397753E-02       5    8    1        -0.7758780705E-01      0.1900494699E+00
          0                16           2             4    7     1      -0.1379266406E-02       5    8    1        -0.7820324882E-01      0.1915570159E+00
          0                17           2             4    7     1      -0.1404635444E-02       5    8    1        -0.7964085548E-01      0.1950784087E+00
          0                18           2             4    7     1      -0.1385623401E-02       5    8    1        -0.7856215413E-01      0.1924361218E+00
          0                19           2             4    7     1      -0.1388028291E-02       5    8    1        -0.7869771166E-01      0.1927681841E+00
          0                20           2             4    7     1      -0.1392152232E-02       5    8    1        -0.7893074754E-01      0.1933390006E+00
                                                   Max.-Head-Change                         Max.-Flux-Residual
  Residual-Control   Outer-Iter.   Inner-Iter.     Column Row Layer    Maximum-Head-Change  Column Row Layer    Maximum-Flux-Residual          L2-NORM 
          0                21           2             4    7     1      -0.2546991726E-02       5    8    1        -0.1444043442E+00      0.3537158928E+00
          0                22           1             4    7     1       0.2864352506E-04       4    7    1         0.1668944093E-02      0.4088847503E-02

    ------------------------------------------------
       NWT REQUIRED           22 OUTER ITERATIONS 
       AND A TOTAL OF         43 INNER ITERATIONS.
    ------------------------------------------------

 NO OUTPUT CONTROL FOR STRESS PERIOD   45   TIME STEP   25
 
 SOLVING FOR HEAD 
                                                   Max.-Head-Change                         Max.-Flux-Residual
  Residual-Control   Outer-Iter.   Inner-Iter.     Column Row Layer    Maximum-Head-Change  Column Row Layer    Maximum-Flux-Residual          L2-NORM 
          0                 1           2             5    8     1       0.7681981800E-01       5    8    1         0.4169004719E+01      0.1016475896E+02
          0                 2           2             4    7     1      -0.9969625078E-01       5    8    1        -0.5453961087E+01      0.1327079194E+02
          0                 3           2             4    7     1       0.6788313277E-02       5    8    1         0.3817428095E+00      0.9288222180E+00
          0                 4           2             4    7     1      -0.1532138842E-02       5    8    1        -0.8717655676E-01      0.2132499618E+00
          0                 5           2             4    7     1      -0.1258749446E-02       4    7    1        -0.7137687496E-01      0.1748322697E+00
          0                 6           2             4    7     1      -0.1323870761E-02       5    8    1        -0.7506966591E-01      0.1838813680E+00
          0                 7           2             4    7     1      -0.1245166091E-02       5    8    1        -0.7060609392E-01      0.1729478955E+00
          0                 8           2             4    7     1      -0.1388738202E-02       5    8    1        -0.7874628174E-01      0.1928872630E+00
          0                 9           2             4    7     1      -0.1269105851E-02       5    8    1        -0.7196218578E-01      0.1762695767E+00
          0                10           2             4    7     1      -0.1349777689E-02       5    8    1        -0.7653561198E-01      0.1874722339E+00
                                                   Max.-Head-Change                         Max.-Flux-Residual
  Residual-Control   Outer-Iter.   Inner-Iter.     Column Row Layer    Maximum-Head-Change  Column Row Layer    Maximum-Flux-Residual          L2-NORM 
          0                11           2             4    7     1      -0.1369724980E-02       5    8    1        -0.7766595319E-01      0.1902409261E+00
          0                12           2             4    7     1      -0.1341458168E-02       5    8    1        -0.7606245229E-01      0.1863131546E+00
          0                13           2             4    7     1      -0.1399736847E-02       5    8    1        -0.7936608131E-01      0.1944053818E+00
          0                14           2             4    7     1      -0.1358550392E-02       5    8    1        -0.7703009034E-01      0.1886833502E+00
          0                15           2             4    7     1      -0.1335704733E-02       5    8    1        -0.7573397205E-01      0.1855085560E+00
          0                16           2             4    7     1      -0.1358249619E-02       5    8    1        -0.7701146515E-01      0.1886377783E+00
          0                17           2             4    7     1      -0.1400457955E-02       5    8    1        -0.7940384013E-01      0.1944978576E+00
          0                18           2             4    7     1      -0.1408218900E-02       5    8    1        -0.7984310949E-01      0.1955738111E+00
          0                19           2             4    7     1      -0.1408624178E-02       5    8    1        -0.7986530219E-01      0.1956281672E+00
          0                20           2             4    7     1      -0.1392883144E-02       5    8    1        -0.7897205702E-01      0.1934401725E+00
                                                   Max.-Head-Change                         Max.-Flux-Residual
  Residual-Control   Outer-Iter.   Inner-Iter.     Column Row Layer    Maximum-Head-Change  Column Row Layer    Maximum-Flux-Residual          L2-NORM 
          0                21           2             4    7     1      -0.2357044610E-02       5    8    1        -0.1336349238E+00      0.3273363088E+00
          0                22           1             4    7     1       0.2660548384E-04       4    7    1         0.1550193489E-02      0.3797894074E-02

    ------------------------------------------------
       NWT REQUIRED           22 OUTER ITERATIONS 
       AND A TOTAL OF         43 INNER ITERATIONS.
    ------------------------------------------------

 NO OUTPUT CONTROL FOR STRESS PERIOD   45   TIME STEP   26
 
 SOLVING FOR HEAD 
                                                   Max.-Head-Change                         Max.-Flux-Residual
  Residual-Control   Outer-Iter.   Inner-Iter.     Column Row Layer    Maximum-Head-Change  Column Row Layer    Maximum-Flux-Residual          L2-NORM 
          0                 1           2             5    8     1       0.7712505832E-01       5    8    1         0.4184805861E+01      0.1021509182E+02
          0                 2           2             4    7     1      -0.1000643185E+00       5    8    1        -0.5472372301E+01      0.1331669059E+02
          0                 3           2             4    7     1       0.6813376799E-02       5    8    1         0.3830315792E+00      0.9320364337E+00
          0                 4           2             4    7     1      -0.1686116366E-02       5    8    1        -0.9590388917E-01      0.2346293161E+00
          0                 5           2             4    7     1      -0.1243765981E-02       4    7    1        -0.7052713413E-01      0.1727510691E+00
          0                 6           2             4    7     1      -0.1322490506E-02       5    8    1        -0.7499125823E-01      0.1836893262E+00
          0                 7           2             4    7     1      -0.1263703077E-02       5    8    1        -0.7165708394E-01      0.1755222850E+00
          0                 8           2             4    7     1      -0.1244603074E-02       5    8    1        -0.7057330726E-01      0.1728676331E+00
          0                 9           2             4    7     1      -0.1272664363E-02       5    8    1        -0.7216373320E-01      0.1767633777E+00
          0                10           2             4    7     1      -0.1369387896E-02       5    8    1        -0.7764742177E-01      0.1901955930E+00
                                                   Max.-Head-Change                         Max.-Flux-Residual
  Residual-Control   Outer-Iter.   Inner-Iter.     Column Row Layer    Maximum-Head-Change  Column Row Layer    Maximum-Flux-Residual          L2-NORM 
          0                11           2             4    7     1      -0.1271395618E-02       5    8    1        -0.7209045901E-01      0.1765837967E+00
          0                12           2             4    7     1      -0.1362173632E-02       5    8    1        -0.7723682870E-01      0.1891898546E+00
          0                13           2             4    7     1      -0.1325779630E-02       5    8    1        -0.7517259785E-01      0.1841334688E+00
          0                14           2             4    7     1      -0.1386896132E-02       5    8    1        -0.7863709187E-01      0.1926197420E+00
          0                15           2             4    7     1      -0.1397183670E-02       5    8    1        -0.7921965196E-01      0.1940466680E+00
          0                16           2             4    7     1      -0.1396127178E-02       5    8    1        -0.7915897294E-01      0.1938980293E+00
          0                17           2             4    7     1      -0.1364938983E-02       5    8    1        -0.7738989019E-01      0.1895646808E+00
          0                18           2             4    7     1      -0.1408524650E-02       5    8    1        -0.7986028389E-01      0.1956159085E+00
          0                19           2             4    7     1      -0.1383038401E-02       5    8    1        -0.7841454444E-01      0.1920745500E+00
          0                20           2             4    7     1      -0.1399092470E-02       5    8    1        -0.7932395021E-01      0.1943021512E+00
                                                   Max.-Head-Change                         Max.-Flux-Residual
  Residual-Control   Outer-Iter.   Inner-Iter.     Column Row Layer    Maximum-Head-Change  Column Row Layer    Maximum-Flux-Residual          L2-NORM 
          0                21           2             4    7     1      -0.2112383096E-02       5    8    1        -0.1197635116E+00      0.2933584225E+00
          0                22           1             4    7     1       0.2394102600E-04       4    7    1         0.1394944883E-02      0.3417521392E-02

    ------------------------------------------------
       NWT REQUIRED           22 OUTER ITERATIONS 
       AND A TOTAL OF         43 INNER ITERATIONS.
    ------------------------------------------------

 NO OUTPUT CONTROL FOR STRESS PERIOD   45   TIME STEP   27
 
 SOLVING FOR HEAD 
                                                   Max.-Head-Change                         Max.-Flux-Residual
  Residual-Control   Outer-Iter.   Inner-Iter.     Column Row Layer    Maximum-Head-Change  Column Row Layer    Maximum-Flux-Residual          L2-NORM 
          0                 1           2             5    8     1       0.7742176715E-01       5    8    1         0.4200415143E+01      0.1026465572E+02
          0                 2           2             4    7     1      -0.1004253205E+00       5    8    1        -0.5490147568E+01      0.1336170937E+02
          0                 3           2             4    7     1       0.6837967837E-02       5    8    1         0.3842763129E+00      0.9351889285E+00
          0                 4           2             4    7     1      -0.1591712770E-02       5    8    1        -0.9054603502E-01      0.2215100161E+00
          0                 5           2             4    7     1      -0.1359539597E-02       4    7    1        -0.7709187576E-01      0.1888313422E+00
          0                 6           2             4    7     1      -0.1273503565E-02       5    8    1        -0.7221347858E-01      0.1768850918E+00
          0                 7           2             4    7     1      -0.1414879595E-02       5    8    1        -0.8022911908E-01      0.1965194373E+00
          0                 8           2             4    7     1      -0.1276953175E-02       5    8    1        -0.7240764118E-01      0.1773606956E+00
          0                 9           2             4    7     1      -0.1341591687E-02       5    8    1        -0.7607195635E-01      0.1863365091E+00
          0                10           2             4    7     1      -0.1333108793E-02       5    8    1        -0.7559026346E-01      0.1851565525E+00
                                                   Max.-Head-Change                         Max.-Flux-Residual
  Residual-Control   Outer-Iter.   Inner-Iter.     Column Row Layer    Maximum-Head-Change  Column Row Layer    Maximum-Flux-Residual          L2-NORM 
          0                11           2             4    7     1      -0.1402806876E-02       5    8    1        -0.7954145582E-01      0.1948349657E+00
          0                12           2             4    7     1      -0.1321816386E-02       5    8    1        -0.7494852782E-01      0.1835845821E+00
          0                13           2             4    7     1      -0.1323226939E-02       5    8    1        -0.7502770221E-01      0.1837785842E+00
          0                14           2             4    7     1      -0.1331383426E-02       5    8    1        -0.7548943076E-01      0.1849095796E+00
          0                15           2             4    7     1      -0.1377854014E-02       5    8    1        -0.7812351292E-01      0.1913617302E+00
          0                16           2             4    7     1      -0.1358724595E-02       5    8    1        -0.7703817172E-01      0.1887031623E+00
          0                17           2             4    7     1      -0.1384275395E-02       5    8    1        -0.7848606311E-01      0.1922497735E+00
          0                18           2             4    7     1      -0.1412501392E-02       5    8    1        -0.8008563689E-01      0.1961678921E+00
          0                19           2             4    7     1      -0.1402779311E-02       5    8    1        -0.7953365725E-01      0.1948158028E+00
          0                20           2             4    7     1      -0.3034569774E-02       5    8    1        -0.1720487196E+00      0.4214304976E+00
          0                21           1             4    7     1       0.3440392019E-04       4    7    1         0.2004589660E-02      0.4911144513E-02

    ------------------------------------------------
       NWT REQUIRED           21 OUTER ITERATIONS 
       AND A TOTAL OF         41 INNER ITERATIONS.
    ------------------------------------------------

 NO OUTPUT CONTROL FOR STRESS PERIOD   45   TIME STEP   28
 
 SOLVING FOR HEAD 
                                                   Max.-Head-Change                         Max.-Flux-Residual
  Residual-Control   Outer-Iter.   Inner-Iter.     Column Row Layer    Maximum-Head-Change  Column Row Layer    Maximum-Flux-Residual          L2-NORM 
          0                 1           2             5    8     1       0.7771471764E-01       5    8    1         0.4215827469E+01      0.1031345976E+02
          0                 2           2             4    7     1      -0.1007794477E+00       5    8    1        -0.5507591290E+01      0.1340588166E+02
          0                 3           2             4    7     1       0.6862064802E-02       5    8    1         0.3854964081E+00      0.9382785704E+00
          0                 4           2             4    7     1      -0.1506001020E-02       5    8    1        -0.8568117645E-01      0.2095981946E+00
          0                 5           2             4    7     1      -0.1251964432E-02       4    7    1        -0.7099177555E-01      0.1738892223E+00
          0                 6           2             4    7     1      -0.1347913082E-02       5    8    1        -0.7643257575E-01      0.1872198078E+00
          0                 7           2             4    7     1      -0.1319180717E-02       5    8    1        -0.7480262222E-01      0.1832272288E+00
          0                 8           2             4    7     1      -0.1343613287E-02       5    8    1        -0.7618724813E-01      0.1866188801E+00
          0                 9           2             4    7     1      -0.1270156837E-02       5    8    1        -0.7202138651E-01      0.1764146258E+00
          0                10           2             4    7     1      -0.1400918351E-02       5    8    1        -0.7943498398E-01      0.1945742132E+00
                                                   Max.-Head-Change                         Max.-Flux-Residual
  Residual-Control   Outer-Iter.   Inner-Iter.     Column Row Layer    Maximum-Head-Change  Column Row Layer    Maximum-Flux-Residual          L2-NORM 
          0                11           2             4    7     1      -0.1359131991E-02       5    8    1        -0.7706497476E-01      0.1887687962E+00
          0                12           2             4    7     1      -0.1403832259E-02       5    8    1        -0.7959869643E-01      0.1949751576E+00
          0                13           2             4    7     1      -0.1336294911E-02       5    8    1        -0.7576859304E-01      0.1855933232E+00
          0                14           2             4    7     1      -0.1370880145E-02       5    8    1        -0.7772874665E-01      0.1903947530E+00
          0                15           2             4    7     1      -0.1372701044E-02       5    8    1        -0.7783124817E-01      0.1906458003E+00
          0                16           2             4    7     1      -0.1384611759E-02       5    8    1        -0.7850579311E-01      0.1922980908E+00
          0                17           2             4    7     1      -0.1399084855E-02       5    8    1        -0.7932561396E-01      0.1943062242E+00
          0                18           2             4    7     1      -0.1389026053E-02       5    8    1        -0.7875453637E-01      0.1929073648E+00
          0                19           2             4    7     1      -0.1388507266E-02       5    8    1        -0.7872433613E-01      0.1928333979E+00
          0                20           2             4    7     1      -0.2820720333E-02       5    8    1        -0.1599240585E+00      0.3917312759E+00
          0                21           1             4    7     1       0.3210201347E-04       4    7    1         0.1870463845E-02      0.4582521864E-02

    ------------------------------------------------
       NWT REQUIRED           21 OUTER ITERATIONS 
       AND A TOTAL OF         41 INNER ITERATIONS.
    ------------------------------------------------

 NO OUTPUT CONTROL FOR STRESS PERIOD   45   TIME STEP   29
 
 SOLVING FOR HEAD 
                                                   Max.-Head-Change                         Max.-Flux-Residual
  Residual-Control   Outer-Iter.   Inner-Iter.     Column Row Layer    Maximum-Head-Change  Column Row Layer    Maximum-Flux-Residual          L2-NORM 
          0                 1           2             5    8     1       0.7800408449E-01       5    8    1         0.4231052159E+01      0.1036152045E+02
          0                 2           2             4    7     1      -0.1011269370E+00       5    8    1        -0.5524716319E+01      0.1344923861E+02
          0                 3           2             4    7     1       0.6885744331E-02       5    8    1         0.3866961021E+00      0.9413158916E+00
          0                 4           2             4    7     1      -0.1652053164E-02       5    8    1        -0.9395854605E-01      0.2298770807E+00
          0                 5           2             4    7     1      -0.1239931985E-02       4    7    1        -0.7030937814E-01      0.1722179139E+00
          0                 6           2             4    7     1      -0.1349791801E-02       5    8    1        -0.7653896816E-01      0.1874804297E+00
          0                 7           2             4    7     1      -0.1342562329E-02       5    8    1        -0.7612831131E-01      0.1864744883E+00
          0                 8           2             4    7     1      -0.1398585444E-02       5    8    1        -0.7930419890E-01      0.1942538003E+00
          0                 9           2             4    7     1      -0.1372241498E-02       5    8    1        -0.7780970462E-01      0.1905930083E+00
          0                10           2             4    7     1      -0.1271307705E-02       5    8    1        -0.7208583227E-01      0.1765724654E+00
                                                   Max.-Head-Change                         Max.-Flux-Residual
  Residual-Control   Outer-Iter.   Inner-Iter.     Column Row Layer    Maximum-Head-Change  Column Row Layer    Maximum-Flux-Residual          L2-NORM 
          0                11           2             4    7     1      -0.1358337348E-02       5    8    1        -0.7701969375E-01      0.1886579849E+00
          0                12           2             4    7     1      -0.1313380530E-02       5    8    1        -0.7446993830E-01      0.1824123148E+00
          0                13           2             4    7     1      -0.1361435617E-02       5    8    1        -0.7719387251E-01      0.1890846010E+00
          0                14           2             4    7     1      -0.1348628336E-02       5    8    1        -0.7646698496E-01      0.1873040586E+00
          0                15           2             4    7     1      -0.1389126390E-02       5    8    1        -0.7876239803E-01      0.1929266604E+00
          0                16           2             4    7     1      -0.1392763722E-02       5    8    1        -0.7896787895E-01      0.1934299518E+00
          0                17           2             4    7     1      -0.1365737296E-02       5    8    1        -0.7743477082E-01      0.1896746180E+00
          0                18           2             4    7     1      -0.1412869538E-02       5    8    1        -0.8010623456E-01      0.1962183616E+00
          0                19           2             4    7     1      -0.1394217446E-02       5    8    1        -0.7904797367E-01      0.1936261251E+00
          0                20           2             4    7     1      -0.2427933709E-02       5    8    1        -0.1376544779E+00      0.3371821644E+00
          0                21           1             4    7     1       0.2770499631E-04       4    7    1         0.1614264408E-02      0.3954827906E-02

    ------------------------------------------------
       NWT REQUIRED           21 OUTER ITERATIONS 
       AND A TOTAL OF         41 INNER ITERATIONS.
    ------------------------------------------------

 NO OUTPUT CONTROL FOR STRESS PERIOD   45   TIME STEP   30



 STREAM LISTING     PERIOD     45   STEP       30

 LAYER ROW COL. STREAM  RCH.  FLOW INTO     FLOW TO   FLOW OUT OF   OVRLND.     DIRECT     STREAM       STREAM     STREAM     STREAM   STREAMBED  STREAMBED
                SEG.NO.  NO.  STRM. RCH.    AQUIFER    STRM. RCH.    RUNOFF     PRECIP       ET          HEAD       DEPTH      WIDTH   CONDCTNC.   GRADIENT

   1    1    1     1     1    1.3875E+01  1.7894E-01   1.3696E+01  0.000E+00  0.000E+00  0.000E+00  1.09404E+03  9.876E-01  9.972E+00  4.487E-02  1.329E+00
   1    2    2     1     2    1.3696E+01  2.7573E-01   1.3420E+01  0.000E+00  0.000E+00  0.000E+00  1.08904E+03  9.829E-01  9.890E+00  6.923E-02  1.328E+00
   1    3    3     1     3    1.3420E+01  2.3380E-01   1.3186E+01  0.000E+00  0.000E+00  0.000E+00  1.08340E+03  9.775E-01  9.797E+00  5.878E-02  1.326E+00
   1    3    4     1     4    1.3186E+01  2.1419E-01   1.2972E+01  0.000E+00  0.000E+00  0.000E+00  1.07838E+03  9.727E-01  9.714E+00  5.391E-02  1.324E+00
   1    4    5     2     1    1.0972E+01  2.9101E-01   1.0681E+01  0.000E+00  0.000E+00  0.000E+00  1.07266E+03  7.309E-01  1.200E+01  7.800E-02  1.244E+00
   1    5    6     2     2    1.0681E+01  2.2322E-01   1.0458E+01  0.000E+00  0.000E+00  0.000E+00  1.06723E+03  7.204E-01  1.200E+01  6.000E-02  1.240E+00
   1    6    6     2     3    1.0458E+01  2.2267E-01   1.0235E+01  0.000E+00  0.000E+00  0.000E+00  1.06250E+03  7.112E-01  1.200E+01  6.000E-02  1.237E+00
   1    7    6     2     4    1.0235E+01  2.2212E-01   1.0013E+01  0.000E+00  0.000E+00  0.000E+00  1.05778E+03  7.020E-01  1.200E+01  6.000E-02  1.234E+00
   1    8    6     2     5    1.0013E+01  2.2157E-01   9.7913E+00  0.000E+00  0.000E+00  0.000E+00  1.05305E+03  6.928E-01  1.200E+01  6.000E-02  1.231E+00
   1    3    5     3     1    2.0000E+00  2.8252E-01   1.7175E+00  0.000E+00  0.000E+00  0.000E+00  1.07555E+03  1.909E+00  9.636E+00  7.227E-02  1.955E+00
   1    3    6     3     2    1.7175E+00  2.4905E-01   1.4684E+00  0.000E+00  0.000E+00  0.000E+00  1.07264E+03  1.727E+00  8.909E+00  6.682E-02  1.864E+00
   1    3    7     3     3    1.4684E+00  1.9718E-01   1.2712E+00  0.000E+00  0.000E+00  0.000E+00  1.06987E+03  1.555E+00  8.218E+00  5.547E-02  1.777E+00
   1    4    8     3     4    1.2712E+00  2.2567E-01   1.0456E+00  0.000E+00  0.000E+00  0.000E+00  1.06682E+03  1.364E+00  7.455E+00  6.709E-02  1.682E+00
   1    5    8     3     5    1.0456E+00  1.5790E-01   8.8768E-01  0.000E+00  0.000E+00  0.000E+00  1.06362E+03  1.164E+00  6.655E+00  4.991E-02  1.582E+00
   1    6    8     3     6    8.8768E-01  5.5980E-02   8.3170E-01  0.000E+00  0.000E+00  0.000E+00  1.06158E+03  1.036E+00  6.145E+00  1.844E-02  1.518E+00
   1    5   10     4     1    1.0000E+01  9.0919E-02   9.9091E+00  0.000E+00  0.000E+00  0.000E+00  1.07836E+03  6.368E-01  1.000E+01  2.500E-02  1.212E+00
   1    5    9     4     2    9.9091E+00  1.8158E-01   9.7275E+00  0.000E+00  0.000E+00  0.000E+00  1.07154E+03  6.315E-01  1.000E+01  5.000E-02  1.211E+00
   1    6    8     4     3    9.7275E+00  1.2689E-01   9.6006E+00  0.000E+00  0.000E+00  0.000E+00  1.06381E+03  6.256E-01  1.000E+01  3.500E-02  1.209E+00
   1    6    8     5     1    1.0432E+01  2.2686E-01   1.0205E+01  0.000E+00  0.000E+00  0.000E+00  1.05868E+03  6.790E-01  1.542E+01  6.166E-02  1.226E+00
   1    7    7     5     2    1.0205E+01  2.7894E-01   9.9265E+00  0.000E+00  0.000E+00  0.000E+00  1.05417E+03  6.732E-01  1.519E+01  7.594E-02  1.224E+00
   1    8    7     5     3    9.9265E+00  1.9221E-01   9.7343E+00  0.000E+00  0.000E+00  0.000E+00  1.04992E+03  6.676E-01  1.497E+01  5.241E-02  1.223E+00
   1    8    6     5     4    9.7343E+00  1.3577E-01   9.5985E+00  0.000E+00  0.000E+00  0.000E+00  1.04691E+03  6.637E-01  1.482E+01  3.706E-02  1.221E+00
   1    9    6     6     1    9.5985E+00  2.2097E-01   9.3776E+00  0.000E+00  0.000E+00  0.000E+00  1.04341E+03  6.828E-01  1.200E+01  6.000E-02  1.228E+00
   1   10    7     6     2    9.3776E+00  2.2039E-01   9.1572E+00  0.000E+00  0.000E+00  0.000E+00  1.03885E+03  6.732E-01  1.200E+01  6.000E-02  1.224E+00
   1   11    7     6     3    9.1572E+00  2.1981E-01   8.9374E+00  0.000E+00  0.000E+00  0.000E+00  1.03430E+03  6.636E-01  1.200E+01  6.000E-02  1.221E+00
   1   12    7     6     4    8.9374E+00  2.1923E-01   8.7181E+00  0.000E+00  0.000E+00  0.000E+00  1.02974E+03  6.539E-01  1.200E+01  6.000E-02  1.218E+00
   1   13    7     6     5    8.7181E+00 -6.9354E-03   8.7251E+00  0.000E+00  0.000E+00  0.000E+00  1.02656E+03  6.491E-01  1.200E+01  2.400E-01 -9.632E-03
   1   14    9     7     1    1.5000E+02  1.3922E+00   1.4861E+02  0.000E+00  0.000E+00  0.000E+00  1.03987E+03  2.288E+00  5.529E+01  5.593E-01  8.297E-01
   1   13    8     7     2    1.4861E+02  1.9978E+00   1.4661E+02  0.000E+00  0.000E+00  0.000E+00  1.03478E+03  2.279E+00  5.525E+01  6.147E-01  1.083E+00
   1   13    7     7     3    1.4661E+02  1.7314E+00   1.4488E+02  0.000E+00  0.000E+00  0.000E+00  1.02969E+03  2.269E+00  5.521E+01  5.584E-01  1.034E+00
   1   13    6     8     1    1.5360E+02  1.0818E+00   1.5252E+02  0.000E+00  0.000E+00  0.000E+00  1.02471E+03  2.838E+00  4.115E+01  4.194E-01  8.598E-01
   1   13    5     8     2    1.5252E+02  3.3458E-01   1.5219E+02  0.000E+00  0.000E+00  0.000E+00  1.01846E+03  2.833E+00  4.108E+01  4.187E-01  2.664E-01
   1   13    4     8     3    1.5219E+02 -1.8752E+00   1.5406E+02  0.000E+00  0.000E+00  0.000E+00  1.01221E+03  2.839E+00  4.116E+01  4.194E+00 -1.490E-01
   1   13    3     8     4    1.5406E+02 -3.3566E+00   1.5742E+02  0.000E+00  0.000E+00  0.000E+00  1.00598E+03  2.857E+00  4.142E+01  4.221E+00 -2.651E-01
   1   13    2     8     5    1.5742E+02 -2.5043E+00   1.5992E+02  0.000E+00  0.000E+00  0.000E+00  9.99752E+02  2.877E+00  4.171E+01  4.251E+00 -1.964E-01
   1   13    1     8     6    1.5992E+02 -1.9620E+00   1.6189E+02  0.000E+00  0.000E+00  0.000E+00  9.94767E+02  2.892E+00  4.193E+01  2.564E+00 -2.551E-01
   1    8    6     9     1    9.7913E+00  0.0000E+00   9.7913E+00  0.000E+00  0.000E+00  0.000E+00  1.08099E+03  2.238E+00  4.000E+00  0.000E+00  1.746E+00
   1    8    5     9     2    9.7913E+00  0.0000E+00   9.7913E+00  0.000E+00  0.000E+00  0.000E+00  1.08049E+03  2.238E+00  4.000E+00  0.000E+00  1.746E+00





UNSATURATED ZONE PACKAGE VOLUMETRIC BUDGET FOR  TIME STEP    30 STRESS PERIOD   45
  ------------------------------------------------------------------------------



     CUMULATIVE VOLUMES      L**3       RATES FOR THIS TIME STEP      L**3/T
     ------------------                 ------------------------

           IN:                                      IN:
           ---                                      ---
        INFILTRATION =  1673155022.3300          INFILTRATION =          49.5496

          OUT:                                     OUT:
          ----                                     ----
              UZF ET =  1665628256.3595                UZF ET =          49.5675
        UZF RECHARGE =       73224.0000          UZF RECHARGE =       0.0000E+00

            IN - OUT =     7453541.9706              IN - OUT =      -1.7853E-02

          STORAGE:                                 STORAGE:
          --------                                 --------
      STORAGE CHANGE =     7453541.1723        STORAGE CHANGE =      -1.7851E-02

 PERCENT DISCREPANCY IS DIFFERENCE BETWEEN IN-OUT MINUS CHANGE IN STORAGE
 DIVIDED BY THE AVERAGE OF IN AND OUT TIMES 100

 PERCENT DISCREPANCY =           0.00     PERCENT DISCREPANCY =          -0.00






1
  VOLUMETRIC BUDGET FOR AGRICULTURAL FIELDS AT  END OF TIME STEP   30, STRESS PERIOD  45
  ------------------------------------------------------------------------------

     CUMULATIVE VOLUMES      L**3       RATES FOR THIS TIME STEP      L**3/T
     ------------------                 ------------------------

           IN:                                      IN:
           ---                                      ---
           AG WELLS      =   841548800.0000             AG WELLS      =          38.9106
      DIVERSION SEGMENTS =   733534784.0000        DIVERSION SEGMENTS =           9.7913
           GW IRRIGATION =           0.0000             GW IRRIGATION =           0.0000
           SW IRRIGATION =           0.0000             SW IRRIGATION =           0.0000
        SYSTEM LOSSES GW =           0.0000          SYSTEM LOSSES GW =           0.0000
        SYSTEM LOSSES SW =           0.0000          SYSTEM LOSSES SW =           0.0000

                TOTAL IN =  1575083520.0000                  TOTAL IN =          48.7020

          OUT:                                     OUT:
          ----                                     ----
           AG WELLS      =           0.0000             AG WELLS      =           0.0000
      DIVERSION SEGMENTS =           0.0000        DIVERSION SEGMENTS =           0.0000
           GW IRRIGATION =   841548800.0000             GW IRRIGATION =          38.9106
           SW IRRIGATION =   733547840.0000             SW IRRIGATION =           9.7915
        SYSTEM LOSSES GW =           0.0000          SYSTEM LOSSES GW =           0.0000
        SYSTEM LOSSES SW =           0.0000          SYSTEM LOSSES SW =           0.0000

               TOTAL OUT =  1575096576.0000                 TOTAL OUT =          48.7021

                IN - OUT =      -13056.0000                  IN - OUT =      -1.9455E-04

     PERCENT DISCREPANCY =          -0.00         PERCENT DISCREPANCY =          -0.00



1
  VOLUMETRIC BUDGET FOR ENTIRE MODEL AT END OF TIME STEP   30, STRESS PERIOD  45
  ------------------------------------------------------------------------------

     CUMULATIVE VOLUMES      L**3       RATES FOR THIS TIME STEP      L**3/T
     ------------------                 ------------------------

           IN:                                      IN:
           ---                                      ---
             STORAGE     =  1136836864.0000               STORAGE     =          36.7968
       CONSTANT HEAD     =           0.0000         CONSTANT HEAD     =           0.0000
     HEAD DEP BOUNDS     =    33409790.0000       HEAD DEP BOUNDS     =           0.2896
      STREAM LEAKAGE     =  1375705728.0000        STREAM LEAKAGE     =          11.9029
        UZF RECHARGE     =       73223.9531          UZF RECHARGE     =           0.0000
               GW ET     =           0.0000                 GW ET     =           0.0000
     SURFACE LEAKAGE     =           0.0000       SURFACE LEAKAGE     =           0.0000
           AG WELLS      =           0.0000             AG WELLS      =           0.0000

                TOTAL IN =  2546025472.0000                  TOTAL IN =          48.9893

          OUT:                                     OUT:
          ----                                     ----
             STORAGE     =   510126624.0000               STORAGE     =       8.7246E-02
       CONSTANT HEAD     =           0.0000         CONSTANT HEAD     =           0.0000
     HEAD DEP BOUNDS     =    33333830.0000       HEAD DEP BOUNDS     =           0.2862
      STREAM LEAKAGE     =  1161035264.0000        STREAM LEAKAGE     =           9.7051
        UZF RECHARGE     =           0.0000          UZF RECHARGE     =           0.0000
               GW ET     =           0.0000                 GW ET     =           0.0000
     SURFACE LEAKAGE     =           0.0000       SURFACE LEAKAGE     =           0.0000
           AG WELLS      =   841548800.0000             AG WELLS      =          38.9106

               TOTAL OUT =  2546044416.0000                 TOTAL OUT =          48.9892

                IN - OUT =      -18944.0000                  IN - OUT =       1.3351E-04

     PERCENT DISCREPANCY =          -0.00         PERCENT DISCREPANCY =           0.00






         TIME SUMMARY AT END OF TIME STEP   30 IN STRESS PERIOD   45
                    SECONDS     MINUTES      HOURS       DAYS        YEARS
                    -----------------------------------------------------------
   TIME STEP LENGTH  87667.      1461.1      24.352      1.0147     2.77799E-03
 STRESS PERIOD TIME 2.63000E+06  43833.      730.56      30.440     8.33397E-02
         TOTAL TIME 1.15805E+08 1.93009E+06  32168.      1340.3      3.6696    
1
1
                            STRESS PERIOD NO.   46, LENGTH =   2630000.    
                            -----------------------------------------------

                              NUMBER OF TIME STEPS =    30

                               MULTIPLIER FOR DELT =     1.000

                            INITIAL TIME STEP SIZE =   87666.66    

 REUSING NON-PARAMETER GHB CELLS FROM LAST STRESS PERIOD

      2 GHB CELLS

 REUSING STREAM SEGMENT DATA FROM LAST STRESS PERIOD



            AREAL INFILTRATION RATE
 READING ON UNIT   19 WITH FORMAT: (FREE)              

            1           2           3           4           5           6           7           8           9          10
 ........................................................................................................................
   1   1.0000E-10  2.0000E-10   0.000       0.000       0.000       0.000       0.000       0.000       0.000       0.000    
   2   2.0000E-10  1.0000E-10  2.0000E-10   0.000       0.000      8.0000E-10  8.0000E-10  5.0000E-10   0.000       0.000    
   3    0.000      5.0000E-10  1.0000E-10  1.0000E-10  8.0000E-10  8.0000E-10  5.0000E-10  5.0000E-10   0.000       0.000    
   4   8.0000E-10  5.0000E-10  1.0000E-10  1.0000E-10  1.0000E-10  1.0000E-10  1.0000E-10  1.0000E-10  2.0000E-10   0.000    
   5   8.0000E-10  5.0000E-10  1.0000E-10  1.0000E-10  1.0000E-10  1.0000E-10  1.0000E-10  1.0000E-10  1.0000E-10  1.0000E-10
   6   8.0000E-10  5.0000E-10  5.0000E-10  2.0000E-10  2.0000E-10  1.0000E-10  1.0000E-10  1.0000E-10  1.0000E-10  5.0000E-10
   7   8.0000E-10  5.0000E-10  5.0000E-10  2.0000E-10  2.0000E-10  1.0000E-10  1.0000E-10  2.0000E-10  2.0000E-10   0.000    
   8    0.000      5.0000E-10  5.0000E-10  2.0000E-10  2.0000E-10  1.0000E-10  1.0000E-10  2.0000E-10  5.0000E-10   0.000    
   9    0.000      5.0000E-10  5.0000E-10  2.0000E-10  2.0000E-10  1.0000E-10  1.0000E-10  2.0000E-10  5.0000E-10   0.000    
  10    0.000      5.0000E-10  5.0000E-10  2.0000E-10  2.0000E-10  1.0000E-10  1.0000E-10  2.0000E-10  5.0000E-10  8.0000E-10
  11    0.000      1.0000E-10  1.0000E-10  1.0000E-10  1.0000E-10  1.0000E-10  1.0000E-10  2.0000E-10  5.0000E-10   0.000    
  12   1.0000E-10  1.0000E-10  1.0000E-10  1.0000E-10  1.0000E-10  1.0000E-10  1.0000E-10  1.0000E-10  2.0000E-10   0.000    
  13   1.0000E-10  1.0000E-10  2.0000E-10  2.0000E-10  2.0000E-10  2.0000E-10  2.0000E-10  1.0000E-10  1.0000E-10   0.000    
  14    0.000      2.0000E-10  5.0000E-10  5.0000E-10  5.0000E-10  5.0000E-10  5.0000E-10  2.0000E-10  1.0000E-10   0.000    
  15    0.000       0.000      8.0000E-10  8.0000E-10  8.0000E-10  8.0000E-10   0.000       0.000       0.000       0.000    

                  ET RATE =  7.500000E-08

 USING ET EXTINCTION DEPTH FROM PREVIOUS STRESS PERIOD. CURRENT PERIOD IS:      46

 USING EXTINCTION WATER CONTENT FROM PREVIOUS STRESS PERIOD. CURRENT PERIOD IS:      46

 USING AIR ENTRY PRESSURE FROM PREVIOUS STRESS PERIOD. CURRENT PERIOD IS:      46

 USING ROOT PRESSURE HEAD FROM PREVIOUS STRESS PERIOD. CURRENT PERIOD IS:      46

 USING ROOT ACTIVITY FROM PREVIOUS STRESS PERIOD. CURRENT PERIOD IS:      46

 PROCESSING AG STRESS PERIOD DATA

 READING AG STRESS PERIOD DATA

 READING IRRIGATION SEGMENT

 READING IRRIGATION WELL

 READING SUPPLEMENTAL WELL

 END PROCESSING AG STRESS PERIOD DATA OPTIONS
 
 SOLVING FOR HEAD 
                                                   Max.-Head-Change                         Max.-Flux-Residual
  Residual-Control   Outer-Iter.   Inner-Iter.     Column Row Layer    Maximum-Head-Change  Column Row Layer    Maximum-Flux-Residual          L2-NORM 
          0                 1           2             5    8     1       0.7828972692E-01       5    8    1         0.4246090833E+01      0.1040330587E+02
          0                 2           2             5    8     1      -0.1235548837E-01       5    8    1        -0.6855810405E+00      0.1642445472E+01
          0                 3           2             5    8     1       0.8413637090E-03       5    8    1         0.4799074466E-01      0.1149713992E+00
          0                 4           1             5    8     1      -0.3347864522E-04       5    8    1        -0.1962823952E-02      0.4702336787E-02

    ------------------------------------------------
       NWT REQUIRED            4 OUTER ITERATIONS 
       AND A TOTAL OF          7 INNER ITERATIONS.
    ------------------------------------------------

 NO OUTPUT CONTROL FOR STRESS PERIOD   46   TIME STEP    1
 
 SOLVING FOR HEAD 
                                                   Max.-Head-Change                         Max.-Flux-Residual
  Residual-Control   Outer-Iter.   Inner-Iter.     Column Row Layer    Maximum-Head-Change  Column Row Layer    Maximum-Flux-Residual          L2-NORM 
          0                 1           2             5    8     1       0.7522077460E-01       5    8    1         0.4076099861E+01      0.1010362316E+02
          0                 2           2             5    8     1      -0.7647072545E-02       5    8    1        -0.4257855883E+00      0.1054109921E+01
          0                 3           2             4    7     1      -0.8568402672E-02       4    7    1        -0.4599124500E+00      0.1125029872E+01
          0                 4           2             4    7     1       0.9545475993E-02       4    7    1         0.5265971790E+00      0.1289341039E+01
          0                 5           2             4    7     1      -0.3955733793E-03       4    7    1        -0.2243153908E-01      0.5498471735E-01
          0                 6           1             4   13     1      -0.2256797524E-04       4   13    1        -0.1402597146E-02      0.3075389311E-02

    ------------------------------------------------
       NWT REQUIRED            6 OUTER ITERATIONS 
       AND A TOTAL OF         11 INNER ITERATIONS.
    ------------------------------------------------

 NO OUTPUT CONTROL FOR STRESS PERIOD   46   TIME STEP    2
 
 SOLVING FOR HEAD 
                                                   Max.-Head-Change                         Max.-Flux-Residual
  Residual-Control   Outer-Iter.   Inner-Iter.     Column Row Layer    Maximum-Head-Change  Column Row Layer    Maximum-Flux-Residual          L2-NORM 
          0                 1           2             5    6     1       0.7222330292E-01       5    8    1         0.3909167465E+01      0.9802429462E+01
          0                 2           2             5    7     1      -0.3109646077E-01       5    8    1        -0.1714003238E+01      0.4165742923E+01
          0                 3           2             4    7     1       0.1189599359E-01       5    8    1         0.6607026335E+00      0.1614497327E+01
          0                 4           2             4    7     1      -0.4733534638E-03       5    8    1        -0.2702084297E-01      0.6603128015E-01
          0                 5           1             4    7     1       0.5836652205E-05       5    6    1         0.3423410622E-03      0.8368573322E-03

    ------------------------------------------------
       NWT REQUIRED            5 OUTER ITERATIONS 
       AND A TOTAL OF          9 INNER ITERATIONS.
    ------------------------------------------------

 NO OUTPUT CONTROL FOR STRESS PERIOD   46   TIME STEP    3
 
 SOLVING FOR HEAD 
                                                   Max.-Head-Change                         Max.-Flux-Residual
  Residual-Control   Outer-Iter.   Inner-Iter.     Column Row Layer    Maximum-Head-Change  Column Row Layer    Maximum-Flux-Residual          L2-NORM 
          0                 1           2             5    6     1       0.6992087435E-01       5    6    1         0.3775410630E+01      0.9559953758E+01
          0                 2           2             5    6     1      -0.2113481051E-01       5    6    1        -0.1165405535E+01      0.2840710726E+01
          0                 3           2             4    7     1      -0.3978571011E-02       4    7    1        -0.2135539525E+00      0.5186436241E+00
          0                 4           2             4    7     1       0.2725371905E-02       4    7    1         0.1503531963E+00      0.3679727458E+00
          0                 5           2             4    7     1      -0.1084708573E-03       4    7    1        -0.6151119403E-02      0.1505551714E-01
          0                 6           1             4    7     1       0.1338485401E-05       4    7    1         0.7801400625E-04      0.1910234348E-03

    ------------------------------------------------
       NWT REQUIRED            6 OUTER ITERATIONS 
       AND A TOTAL OF         11 INNER ITERATIONS.
    ------------------------------------------------

 NO OUTPUT CONTROL FOR STRESS PERIOD   46   TIME STEP    4
 
 SOLVING FOR HEAD 
                                                   Max.-Head-Change                         Max.-Flux-Residual
  Residual-Control   Outer-Iter.   Inner-Iter.     Column Row Layer    Maximum-Head-Change  Column Row Layer    Maximum-Flux-Residual          L2-NORM 
          0                 1           2             5    6     1       0.6783019480E-01       5    6    1         0.3660288106E+01      0.9337516705E+01
          0                 2           2             5    7     1      -0.2390824865E-01       5    6    1        -0.1311096230E+01      0.3204811139E+01
          0                 3           2             5    7     1       0.1628326968E-02       5    6    1         0.9179155063E-01      0.2243332617E+00
          0                 4           1             5    7     1      -0.6479271747E-04       5    6    1        -0.3754279680E-02      0.9174081023E-02

    ------------------------------------------------
       NWT REQUIRED            4 OUTER ITERATIONS 
       AND A TOTAL OF          7 INNER ITERATIONS.
    ------------------------------------------------

 NO OUTPUT CONTROL FOR STRESS PERIOD   46   TIME STEP    5
 
 SOLVING FOR HEAD 
                                                   Max.-Head-Change                         Max.-Flux-Residual
  Residual-Control   Outer-Iter.   Inner-Iter.     Column Row Layer    Maximum-Head-Change  Column Row Layer    Maximum-Flux-Residual          L2-NORM 
          0                 1           2             5    6     1       0.6585621244E-01       5    6    1         0.3551659342E+01      0.9126440018E+01
          0                 2           2             5    7     1      -0.2382164794E-01       5    6    1        -0.1301135019E+01      0.3188629592E+01
          0                 3           2             5    7     1       0.1622113067E-02       5    6    1         0.9107662040E-01      0.2231567732E+00
          0                 4           1             5    7     1      -0.6454546172E-04       5    6    1        -0.3725039001E-02      0.9126038173E-02

    ------------------------------------------------
       NWT REQUIRED            4 OUTER ITERATIONS 
       AND A TOTAL OF          7 INNER ITERATIONS.
    ------------------------------------------------

 NO OUTPUT CONTROL FOR STRESS PERIOD   46   TIME STEP    6
 
 SOLVING FOR HEAD 
                                                   Max.-Head-Change                         Max.-Flux-Residual
  Residual-Control   Outer-Iter.   Inner-Iter.     Column Row Layer    Maximum-Head-Change  Column Row Layer    Maximum-Flux-Residual          L2-NORM 
          0                 1           2             5    7     1       0.6448845019E-01       5    6    1         0.3449092360E+01      0.8925902973E+01
          0                 2           2             5    7     1      -0.2372771264E-01       5    6    1        -0.1291278871E+01      0.3172043949E+01
          0                 3           2             5    7     1       0.1615569766E-02       5    6    1         0.9037852176E-01      0.2219749337E+00
          0                 4           1             5    7     1      -0.6428509904E-04       5    6    1        -0.3696486748E-02      0.9077546927E-02

    ------------------------------------------------
       NWT REQUIRED            4 OUTER ITERATIONS 
       AND A TOTAL OF          7 INNER ITERATIONS.
    ------------------------------------------------

 NO OUTPUT CONTROL FOR STRESS PERIOD   46   TIME STEP    7
 
 SOLVING FOR HEAD 
                                                   Max.-Head-Change                         Max.-Flux-Residual
  Residual-Control   Outer-Iter.   Inner-Iter.     Column Row Layer    Maximum-Head-Change  Column Row Layer    Maximum-Flux-Residual          L2-NORM 
          0                 1           2             5    7     1       0.6346689940E-01       5    7    1         0.3365305939E+01      0.8735140641E+01
          0                 2           2             4    7     1      -0.2365055740E-01       5    7    1        -0.1283080680E+01      0.3155681530E+01
          0                 3           2             4    7     1       0.1610243007E-02       5    7    1         0.8980066937E-01      0.2208191949E+00
          0                 4           1             4    7     1      -0.6407308558E-04       5    7    1        -0.3672853038E-02      0.9030273062E-02

    ------------------------------------------------
       NWT REQUIRED            4 OUTER ITERATIONS 
       AND A TOTAL OF          7 INNER ITERATIONS.
    ------------------------------------------------

 NO OUTPUT CONTROL FOR STRESS PERIOD   46   TIME STEP    8
 
 SOLVING FOR HEAD 
                                                   Max.-Head-Change                         Max.-Flux-Residual
  Residual-Control   Outer-Iter.   Inner-Iter.     Column Row Layer    Maximum-Head-Change  Column Row Layer    Maximum-Flux-Residual          L2-NORM 
          0                 1           2             5    7     1       0.6246614882E-01       5    7    1         0.3312220251E+01      0.8553461042E+01
          0                 2           2             4    7     1      -0.2362431090E-01       5    7    1        -0.1277851432E+01      0.3139781513E+01
          0                 3           2             4    7     1       0.1608424209E-02       5    7    1         0.8943288588E-01      0.2197009635E+00
          0                 4           1             4    7     1      -0.6400071487E-04       5    7    1        -0.3657810699E-02      0.8984451348E-02

    ------------------------------------------------
       NWT REQUIRED            4 OUTER ITERATIONS 
       AND A TOTAL OF          7 INNER ITERATIONS.
    ------------------------------------------------

 NO OUTPUT CONTROL FOR STRESS PERIOD   46   TIME STEP    9
 
 SOLVING FOR HEAD 
                                                   Max.-Head-Change                         Max.-Flux-Residual
  Residual-Control   Outer-Iter.   Inner-Iter.     Column Row Layer    Maximum-Head-Change  Column Row Layer    Maximum-Flux-Residual          L2-NORM 
          0                 1           2             5    7     1       0.6148656839E-01       5    7    1         0.3260211369E+01      0.8380256877E+01
          0                 2           2             4    7     1      -0.2359461326E-01       5    7    1        -0.1272685961E+01      0.3124445370E+01
          0                 3           2             4    7     1       0.1606388783E-02       5    7    1         0.8907058085E-01      0.2186242759E+00
          0                 4           1             4    7     1      -0.6391972456E-04       5    7    1        -0.3642992457E-02      0.8940369154E-02

    ------------------------------------------------
       NWT REQUIRED            4 OUTER ITERATIONS 
       AND A TOTAL OF          7 INNER ITERATIONS.
    ------------------------------------------------

 NO OUTPUT CONTROL FOR STRESS PERIOD   46   TIME STEP   10
 
 SOLVING FOR HEAD 
                                                   Max.-Head-Change                         Max.-Flux-Residual
  Residual-Control   Outer-Iter.   Inner-Iter.     Column Row Layer    Maximum-Head-Change  Column Row Layer    Maximum-Flux-Residual          L2-NORM 
          0                 1           2             4    7     1       0.6087796120E-01       5    7    1         0.3209307567E+01      0.8214969021E+01
          0                 2           2             4    7     1      -0.2356217308E-01       5    7    1        -0.1267611417E+01      0.3109695280E+01
          0                 3           2             4    7     1       0.1604170935E-02       5    7    1         0.8871487986E-01      0.2175899187E+00
          0                 4           1             4    7     1      -0.6405852643E-04       5    7    1        -0.3641318870E-02      0.8929204025E-02

    ------------------------------------------------
       NWT REQUIRED            4 OUTER ITERATIONS 
       AND A TOTAL OF          7 INNER ITERATIONS.
    ------------------------------------------------

 NO OUTPUT CONTROL FOR STRESS PERIOD   46   TIME STEP   11
 
 SOLVING FOR HEAD 
                                                   Max.-Head-Change                         Max.-Flux-Residual
  Residual-Control   Outer-Iter.   Inner-Iter.     Column Row Layer    Maximum-Head-Change  Column Row Layer    Maximum-Flux-Residual          L2-NORM 
          0                 1           2             4    7     1       0.6051921434E-01       4    7    1         0.3167495678E+01      0.8057077579E+01
          0                 2           2             4    7     1      -0.2352727698E-01       4    7    1        -0.1263470784E+01      0.3095491069E+01
          0                 3           2             4    7     1       0.1601793929E-02       4    7    1         0.8842219455E-01      0.2165947963E+00
          0                 4           1             4    7     1      -0.6396337531E-04       4    7    1        -0.3629427369E-02      0.8888544213E-02

    ------------------------------------------------
       NWT REQUIRED            4 OUTER ITERATIONS 
       AND A TOTAL OF          7 INNER ITERATIONS.
    ------------------------------------------------

 NO OUTPUT CONTROL FOR STRESS PERIOD   46   TIME STEP   12
 
 SOLVING FOR HEAD 
                                                   Max.-Head-Change                         Max.-Flux-Residual
  Residual-Control   Outer-Iter.   Inner-Iter.     Column Row Layer    Maximum-Head-Change  Column Row Layer    Maximum-Flux-Residual          L2-NORM 
          0                 1           2             4    7     1       0.6014029146E-01       4    7    1         0.3148851752E+01      0.7906099516E+01
          0                 2           2             4    7     1      -0.2349459167E-01       4    7    1        -0.1261848675E+01      0.3081848474E+01
          0                 3           2             4    7     1       0.1599568623E-02       4    7    1         0.8831143462E-01      0.2156387556E+00
          0                 4           1             4    7     1      -0.6387539307E-04       4    7    1        -0.3624818198E-02      0.8849284752E-02

    ------------------------------------------------
       NWT REQUIRED            4 OUTER ITERATIONS 
       AND A TOTAL OF          7 INNER ITERATIONS.
    ------------------------------------------------

 NO OUTPUT CONTROL FOR STRESS PERIOD   46   TIME STEP   13
 
 SOLVING FOR HEAD 
                                                   Max.-Head-Change                         Max.-Flux-Residual
  Residual-Control   Outer-Iter.   Inner-Iter.     Column Row Layer    Maximum-Head-Change  Column Row Layer    Maximum-Flux-Residual          L2-NORM 
          0                 1           2             4    7     1       0.5973380556E-01       4    7    1         0.3128939318E+01      0.7761587196E+01
          0                 2           2             4    7     1      -0.2345054752E-01       4    7    1        -0.1259576136E+01      0.3068729937E+01
          0                 3           2             4    7     1       0.1596569282E-02       4    7    1         0.8815235051E-01      0.2147195747E+00
          0                 4           1             4    7     1      -0.6375604673E-04       4    7    1        -0.3618311674E-02      0.8811754573E-02

    ------------------------------------------------
       NWT REQUIRED            4 OUTER ITERATIONS 
       AND A TOTAL OF          7 INNER ITERATIONS.
    ------------------------------------------------

 NO OUTPUT CONTROL FOR STRESS PERIOD   46   TIME STEP   14
 
 SOLVING FOR HEAD 
                                                   Max.-Head-Change                         Max.-Flux-Residual
  Residual-Control   Outer-Iter.   Inner-Iter.     Column Row Layer    Maximum-Head-Change  Column Row Layer    Maximum-Flux-Residual          L2-NORM 
          0                 1           2             4    7     1       0.5931547020E-01       4    7    1         0.3108067519E+01      0.7623141252E+01
          0                 2           2             4    7     1      -0.2340985203E-01       4    7    1        -0.1257489135E+01      0.3056109855E+01
          0                 3           2             4    7     1       0.1593797968E-02       4    7    1         0.8800625375E-01      0.2138353636E+00
          0                 4           1             4    7     1      -0.6364577383E-04       4    7    1        -0.3612336334E-02      0.8775520998E-02

    ------------------------------------------------
       NWT REQUIRED            4 OUTER ITERATIONS 
       AND A TOTAL OF          7 INNER ITERATIONS.
    ------------------------------------------------

 NO OUTPUT CONTROL FOR STRESS PERIOD   46   TIME STEP   15
 
 SOLVING FOR HEAD 
                                                   Max.-Head-Change                         Max.-Flux-Residual
  Residual-Control   Outer-Iter.   Inner-Iter.     Column Row Layer    Maximum-Head-Change  Column Row Layer    Maximum-Flux-Residual          L2-NORM 
          0                 1           2             4    7     1       0.5888228459E-01       4    7    1         0.3086326875E+01      0.7490389540E+01
          0                 2           2             4    7     1      -0.2336771097E-01       4    7    1        -0.1255315230E+01      0.3043960652E+01
          0                 3           2             4    7     1       0.1590928227E-02       4    7    1         0.8785407433E-01      0.2129838725E+00
          0                 4           1             4    7     1      -0.6353158464E-04       4    7    1        -0.3606112218E-02      0.8740611614E-02

    ------------------------------------------------
       NWT REQUIRED            4 OUTER ITERATIONS 
       AND A TOTAL OF          7 INNER ITERATIONS.
    ------------------------------------------------

 NO OUTPUT CONTROL FOR STRESS PERIOD   46   TIME STEP   16
 
 SOLVING FOR HEAD 
                                                   Max.-Head-Change                         Max.-Flux-Residual
  Residual-Control   Outer-Iter.   Inner-Iter.     Column Row Layer    Maximum-Head-Change  Column Row Layer    Maximum-Flux-Residual          L2-NORM 
          0                 1           2             4    7     1       0.5843616184E-01       4    7    1         0.3063823557E+01      0.7362986653E+01
          0                 2           2             4    7     1      -0.2332431055E-01       4    7    1        -0.1253065039E+01      0.3032258420E+01
          0                 3           2             4    7     1       0.1587972735E-02       4    7    1         0.8769655548E-01      0.2121649778E+00
          0                 4           1             4    7     1      -0.6341398329E-04       4    7    1        -0.3599669713E-02      0.8707111430E-02

    ------------------------------------------------
       NWT REQUIRED            4 OUTER ITERATIONS 
       AND A TOTAL OF          7 INNER ITERATIONS.
    ------------------------------------------------

 NO OUTPUT CONTROL FOR STRESS PERIOD   46   TIME STEP   17
 
 SOLVING FOR HEAD 
                                                   Max.-Head-Change                         Max.-Flux-Residual
  Residual-Control   Outer-Iter.   Inner-Iter.     Column Row Layer    Maximum-Head-Change  Column Row Layer    Maximum-Flux-Residual          L2-NORM 
          0                 1           2             4    7     1       0.5797861673E-01       4    7    1         0.3040642237E+01      0.7240612772E+01
          0                 2           2             4    7     1      -0.2327979817E-01       4    7    1        -0.1250747031E+01      0.3020975759E+01
          0                 3           2             4    7     1       0.1584941534E-02       4    7    1         0.8753429006E-01      0.2113731752E+00
          0                 4           1             4    7     1      -0.6329336929E-04       4    7    1        -0.3593033077E-02      0.8674699744E-02

    ------------------------------------------------
       NWT REQUIRED            4 OUTER ITERATIONS 
       AND A TOTAL OF          7 INNER ITERATIONS.
    ------------------------------------------------

 NO OUTPUT CONTROL FOR STRESS PERIOD   46   TIME STEP   18
 
 SOLVING FOR HEAD 
                                                   Max.-Head-Change                         Max.-Flux-Residual
  Residual-Control   Outer-Iter.   Inner-Iter.     Column Row Layer    Maximum-Head-Change  Column Row Layer    Maximum-Flux-Residual          L2-NORM 
          0                 1           2             4    7     1       0.5751132074E-01       4    7    1         0.3016875968E+01      0.7122974697E+01
          0                 2           2             4    7     1      -0.2323433653E-01       4    7    1        -0.1248370514E+01      0.3010096100E+01
          0                 3           2             4    7     1       0.1581845697E-02       4    7    1         0.8736792941E-01      0.2106108313E+00
          0                 4           1             4    7     1      -0.6317018321E-04       4    7    1        -0.3586228932E-02      0.8643534286E-02

    ------------------------------------------------
       NWT REQUIRED            4 OUTER ITERATIONS 
       AND A TOTAL OF          7 INNER ITERATIONS.
    ------------------------------------------------

 NO OUTPUT CONTROL FOR STRESS PERIOD   46   TIME STEP   19
 
 SOLVING FOR HEAD 
                                                   Max.-Head-Change                         Max.-Flux-Residual
  Residual-Control   Outer-Iter.   Inner-Iter.     Column Row Layer    Maximum-Head-Change  Column Row Layer    Maximum-Flux-Residual          L2-NORM 
          0                 1           2             4    7     1       0.5703543624E-01       4    7    1         0.2992589633E+01      0.7009796876E+01
          0                 2           2             4    7     1      -0.2318803874E-01       4    7    1        -0.1245941976E+01      0.2999596493E+01
          0                 3           2             4    7     1       0.1578692929E-02       4    7    1         0.8719792780E-01      0.2098750575E+00
          0                 4           1             4    7     1      -0.6304473132E-04       4    7    1        -0.3579275851E-02      0.8613401795E-02

    ------------------------------------------------
       NWT REQUIRED            4 OUTER ITERATIONS 
       AND A TOTAL OF          7 INNER ITERATIONS.
    ------------------------------------------------

 NO OUTPUT CONTROL FOR STRESS PERIOD   46   TIME STEP   20
 
 SOLVING FOR HEAD 
                                                   Max.-Head-Change                         Max.-Flux-Residual
  Residual-Control   Outer-Iter.   Inner-Iter.     Column Row Layer    Maximum-Head-Change  Column Row Layer    Maximum-Flux-Residual          L2-NORM 
          0                 1           2             4    7     1       0.5655256533E-01       4    7    1         0.2967872534E+01      0.6900838752E+01
          0                 2           2             4    7     1      -0.2314105505E-01       4    7    1        -0.1243470349E+01      0.2989460138E+01
          0                 3           2             4    7     1       0.1575487944E-02       4    7    1         0.8702491038E-01      0.2091645358E+00
          0                 4           1             4    7     1      -0.6291720263E-04       4    7    1        -0.3572199465E-02      0.8584300919E-02

    ------------------------------------------------
       NWT REQUIRED            4 OUTER ITERATIONS 
       AND A TOTAL OF          7 INNER ITERATIONS.
    ------------------------------------------------

 NO OUTPUT CONTROL FOR STRESS PERIOD   46   TIME STEP   21
 
 SOLVING FOR HEAD 
                                                   Max.-Head-Change                         Max.-Flux-Residual
  Residual-Control   Outer-Iter.   Inner-Iter.     Column Row Layer    Maximum-Head-Change  Column Row Layer    Maximum-Flux-Residual          L2-NORM 
          0                 1           2             4    7     1       0.5606366640E-01       4    7    1         0.2942778695E+01      0.6795854710E+01
          0                 2           2             4    7     1      -0.2309355364E-01       4    7    1        -0.1240961036E+01      0.2979670365E+01
          0                 3           2             4    7     1       0.1572258748E-02       4    7    1         0.8684925557E-01      0.2084786154E+00
          0                 4           1             4    7     1      -0.6278870964E-04       4    7    1        -0.3565015184E-02      0.8556145281E-02

    ------------------------------------------------
       NWT REQUIRED            4 OUTER ITERATIONS 
       AND A TOTAL OF          7 INNER ITERATIONS.
    ------------------------------------------------

 NO OUTPUT CONTROL FOR STRESS PERIOD   46   TIME STEP   22
 
 SOLVING FOR HEAD 
                                                   Max.-Head-Change                         Max.-Flux-Residual
  Residual-Control   Outer-Iter.   Inner-Iter.     Column Row Layer    Maximum-Head-Change  Column Row Layer    Maximum-Flux-Residual          L2-NORM 
          0                 1           2             4    7     1       0.5556983975E-01       4    7    1         0.2917376500E+01      0.6694618576E+01
          0                 2           2             4    7     1      -0.2304544830E-01       4    7    1        -0.1238420878E+01      0.2970202368E+01
          0                 3           2             4    7     1       0.1568982908E-02       4    7    1         0.8667144157E-01      0.2078146651E+00
          0                 4           1             4    7     1      -0.6265836102E-04       4    7    1        -0.3557742591E-02      0.8528652242E-02

    ------------------------------------------------
       NWT REQUIRED            4 OUTER ITERATIONS 
       AND A TOTAL OF          7 INNER ITERATIONS.
    ------------------------------------------------

 NO OUTPUT CONTROL FOR STRESS PERIOD   46   TIME STEP   23
 
 SOLVING FOR HEAD 
                                                   Max.-Head-Change                         Max.-Flux-Residual
  Residual-Control   Outer-Iter.   Inner-Iter.     Column Row Layer    Maximum-Head-Change  Column Row Layer    Maximum-Flux-Residual          L2-NORM 
          0                 1           2             4    7     1       0.5507219571E-01       4    7    1         0.2891717872E+01      0.6596934309E+01
          0                 2           2             4    7     1      -0.2299703167E-01       4    7    1        -0.1235855066E+01      0.2961049302E+01
          0                 3           2             4    7     1       0.1565685880E-02       4    7    1         0.8649183236E-01      0.2071737889E+00
          0                 4           1             4    7     1      -0.6252716989E-04       4    7    1        -0.3550396596E-02      0.8502754923E-02

    ------------------------------------------------
       NWT REQUIRED            4 OUTER ITERATIONS 
       AND A TOTAL OF          7 INNER ITERATIONS.
    ------------------------------------------------

 NO OUTPUT CONTROL FOR STRESS PERIOD   46   TIME STEP   24
 
 SOLVING FOR HEAD 
                                                   Max.-Head-Change                         Max.-Flux-Residual
  Residual-Control   Outer-Iter.   Inner-Iter.     Column Row Layer    Maximum-Head-Change  Column Row Layer    Maximum-Flux-Residual          L2-NORM 
          0                 1           2             4    7     1       0.5457192598E-01       4    7    1         0.2865872626E+01      0.6502629201E+01
          0                 2           2             4    7     1      -0.2294835923E-01       4    7    1        -0.1233270584E+01      0.2952194757E+01
          0                 3           2             4    7     1       0.1562371436E-02       4    7    1         0.8631091655E-01      0.2065529599E+00
          0                 4           1             4    7     1      -0.6239528455E-04       4    7    1        -0.3542997124E-02      0.8477185380E-02

    ------------------------------------------------
       NWT REQUIRED            4 OUTER ITERATIONS 
       AND A TOTAL OF          7 INNER ITERATIONS.
    ------------------------------------------------

 NO OUTPUT CONTROL FOR STRESS PERIOD   46   TIME STEP   25
 
 SOLVING FOR HEAD 
                                                   Max.-Head-Change                         Max.-Flux-Residual
  Residual-Control   Outer-Iter.   Inner-Iter.     Column Row Layer    Maximum-Head-Change  Column Row Layer    Maximum-Flux-Residual          L2-NORM 
          0                 1           2             4    7     1       0.5406952854E-01       4    7    1         0.2839869460E+01      0.6411519965E+01
          0                 2           2             4    7     1      -0.2289947943E-01       4    7    1        -0.1230670302E+01      0.2943624627E+01
          0                 3           2             4    7     1       0.1559042878E-02       4    7    1         0.8612889504E-01      0.2059575333E+00
          0                 4           1             4    7     1      -0.6226283807E-04       4    7    1        -0.3535552445E-02      0.8453698901E-02

    ------------------------------------------------
       NWT REQUIRED            4 OUTER ITERATIONS 
       AND A TOTAL OF          7 INNER ITERATIONS.
    ------------------------------------------------

 NO OUTPUT CONTROL FOR STRESS PERIOD   46   TIME STEP   26
 
 SOLVING FOR HEAD 
                                                   Max.-Head-Change                         Max.-Flux-Residual
  Residual-Control   Outer-Iter.   Inner-Iter.     Column Row Layer    Maximum-Head-Change  Column Row Layer    Maximum-Flux-Residual          L2-NORM 
          0                 1           2             4    7     1       0.5356624920E-01       4    7    1         0.2813777772E+01      0.6323451441E+01
          0                 2           2             4    7     1      -0.2285051353E-01       4    7    1        -0.1228061160E+01      0.2935326460E+01
          0                 3           2             4    7     1       0.1555708460E-02       4    7    1         0.8594625362E-01      0.2053758415E+00
          0                 4           1             4    7     1      -0.6213015869E-04       4    7    1        -0.3528082411E-02      0.8429849560E-02

    ------------------------------------------------
       NWT REQUIRED            4 OUTER ITERATIONS 
       AND A TOTAL OF          7 INNER ITERATIONS.
    ------------------------------------------------

 NO OUTPUT CONTROL FOR STRESS PERIOD   46   TIME STEP   27
 
 SOLVING FOR HEAD 
                                                   Max.-Head-Change                         Max.-Flux-Residual
  Residual-Control   Outer-Iter.   Inner-Iter.     Column Row Layer    Maximum-Head-Change  Column Row Layer    Maximum-Flux-Residual          L2-NORM 
          0                 1           2             4    7     1       0.5306244090E-01       4    7    1         0.2787618570E+01      0.6238257896E+01
          0                 2           2             4    7     1      -0.2280149587E-01       4    7    1        -0.1225445260E+01      0.2927287250E+01
          0                 3           2             4    7     1       0.1552370521E-02       4    7    1         0.8576313940E-01      0.2048124194E+00
          0                 4           1             4    7     1      -0.6199733886E-04       4    7    1        -0.3520593017E-02      0.8406751266E-02

    ------------------------------------------------
       NWT REQUIRED            4 OUTER ITERATIONS 
       AND A TOTAL OF          7 INNER ITERATIONS.
    ------------------------------------------------

 NO OUTPUT CONTROL FOR STRESS PERIOD   46   TIME STEP   28
 
 SOLVING FOR HEAD 
                                                   Max.-Head-Change                         Max.-Flux-Residual
  Residual-Control   Outer-Iter.   Inner-Iter.     Column Row Layer    Maximum-Head-Change  Column Row Layer    Maximum-Flux-Residual          L2-NORM 
          0                 1           2             4    7     1       0.5255908636E-01       4    7    1         0.2761446474E+01      0.6155809130E+01
          0                 2           2             4    7     1      -0.2275252211E-01       4    7    1        -0.1222828065E+01      0.2919496439E+01
          0                 3           2             4    7     1       0.1549035575E-02       4    7    1         0.8557993475E-01      0.2042660204E+00
          0                 4           1             4    7     1      -0.6186463784E-04       4    7    1        -0.3513099936E-02      0.8384299856E-02

    ------------------------------------------------
       NWT REQUIRED            4 OUTER ITERATIONS 
       AND A TOTAL OF          7 INNER ITERATIONS.
    ------------------------------------------------

 NO OUTPUT CONTROL FOR STRESS PERIOD   46   TIME STEP   29
 
 SOLVING FOR HEAD 
                                                   Max.-Head-Change                         Max.-Flux-Residual
  Residual-Control   Outer-Iter.   Inner-Iter.     Column Row Layer    Maximum-Head-Change  Column Row Layer    Maximum-Flux-Residual          L2-NORM 
          0                 1           2             4    7     1       0.5205682973E-01       4    7    1         0.2735297907E+01      0.6075984816E+01
          0                 2           2             4    7     1      -0.2270365492E-01       4    7    1        -0.1220213217E+01      0.2911944559E+01
          0                 3           2             4    7     1       0.1545707890E-02       4    7    1         0.8539689464E-01      0.2037362690E+00
          0                 4           1             4    7     1      -0.6173222625E-04       4    7    1        -0.3505613597E-02      0.8362647149E-02

    ------------------------------------------------
       NWT REQUIRED            4 OUTER ITERATIONS 
       AND A TOTAL OF          7 INNER ITERATIONS.
    ------------------------------------------------

 NO OUTPUT CONTROL FOR STRESS PERIOD   46   TIME STEP   30



 STREAM LISTING     PERIOD     46   STEP       30

 LAYER ROW COL. STREAM  RCH.  FLOW INTO     FLOW TO   FLOW OUT OF   OVRLND.     DIRECT     STREAM       STREAM     STREAM     STREAM   STREAMBED  STREAMBED
                SEG.NO.  NO.  STRM. RCH.    AQUIFER    STRM. RCH.    RUNOFF     PRECIP       ET          HEAD       DEPTH      WIDTH   CONDCTNC.   GRADIENT

   1    1    1     1     1    9.3747E+00  1.4265E-01   9.2321E+00  0.000E+00  0.000E+00  0.000E+00  1.09393E+03  8.788E-01  8.172E+00  3.678E-02  1.293E+00
   1    2    2     1     2    9.2321E+00  2.1921E-01   9.0129E+00  0.000E+00  0.000E+00  0.000E+00  1.08893E+03  8.731E-01  8.085E+00  5.660E-02  1.291E+00
   1    3    3     1     3    9.0129E+00  1.8531E-01   8.8275E+00  0.000E+00  0.000E+00  0.000E+00  1.08329E+03  8.667E-01  7.987E+00  4.792E-02  1.289E+00
   1    3    4     1     4    8.8275E+00  1.6930E-01   8.6583E+00  0.000E+00  0.000E+00  0.000E+00  1.07827E+03  8.609E-01  7.901E+00  4.385E-02  1.287E+00
   1    4    5     2     1    6.6583E+00  2.7605E-01   6.3822E+00  0.000E+00  0.000E+00  0.000E+00  1.07247E+03  5.391E-01  1.200E+01  7.800E-02  1.180E+00
   1    5    6     2     2    6.3822E+00  2.1162E-01   6.1706E+00  0.000E+00  0.000E+00  0.000E+00  1.06704E+03  5.270E-01  1.200E+01  6.000E-02  1.176E+00
   1    6    6     2     3    6.1706E+00  2.1097E-01   5.9596E+00  0.000E+00  0.000E+00  0.000E+00  1.06231E+03  5.162E-01  1.200E+01  6.000E-02  1.172E+00
   1    7    6     2     4    5.9596E+00  2.1032E-01   5.7493E+00  0.000E+00  0.000E+00  0.000E+00  1.05758E+03  5.054E-01  1.200E+01  6.000E-02  1.168E+00
   1    8    6     2     5    5.7493E+00  2.0967E-01   5.5396E+00  0.000E+00  0.000E+00  0.000E+00  1.05285E+03  4.944E-01  1.200E+01  6.000E-02  1.165E+00
   1    3    5     3     1    2.0000E+00  2.8252E-01   1.7175E+00  0.000E+00  0.000E+00  0.000E+00  1.07555E+03  1.909E+00  9.636E+00  7.227E-02  1.955E+00
   1    3    6     3     2    1.7175E+00  2.4905E-01   1.4684E+00  0.000E+00  0.000E+00  0.000E+00  1.07264E+03  1.727E+00  8.909E+00  6.682E-02  1.864E+00
   1    3    7     3     3    1.4684E+00  1.9718E-01   1.2712E+00  0.000E+00  0.000E+00  0.000E+00  1.06987E+03  1.555E+00  8.218E+00  5.547E-02  1.777E+00
   1    4    8     3     4    1.2712E+00  2.2567E-01   1.0456E+00  0.000E+00  0.000E+00  0.000E+00  1.06682E+03  1.364E+00  7.455E+00  6.709E-02  1.682E+00
   1    5    8     3     5    1.0456E+00  1.5790E-01   8.8768E-01  0.000E+00  0.000E+00  0.000E+00  1.06362E+03  1.164E+00  6.655E+00  4.991E-02  1.582E+00
   1    6    8     3     6    8.8768E-01  5.5980E-02   8.3170E-01  0.000E+00  0.000E+00  0.000E+00  1.06158E+03  1.036E+00  6.145E+00  1.844E-02  1.518E+00
   1    5   10     4     1    1.0000E+01  9.0919E-02   9.9091E+00  0.000E+00  0.000E+00  0.000E+00  1.07836E+03  6.368E-01  1.000E+01  2.500E-02  1.212E+00
   1    5    9     4     2    9.9091E+00  1.8158E-01   9.7275E+00  0.000E+00  0.000E+00  0.000E+00  1.07154E+03  6.315E-01  1.000E+01  5.000E-02  1.211E+00
   1    6    8     4     3    9.7275E+00  1.2689E-01   9.6006E+00  0.000E+00  0.000E+00  0.000E+00  1.06381E+03  6.256E-01  1.000E+01  3.500E-02  1.209E+00
   1    6    8     5     1    1.0432E+01  2.2686E-01   1.0205E+01  0.000E+00  0.000E+00  0.000E+00  1.05868E+03  6.790E-01  1.542E+01  6.166E-02  1.226E+00
   1    7    7     5     2    1.0205E+01  2.7894E-01   9.9265E+00  0.000E+00  0.000E+00  0.000E+00  1.05417E+03  6.732E-01  1.519E+01  7.594E-02  1.224E+00
   1    8    7     5     3    9.9265E+00  1.9221E-01   9.7343E+00  0.000E+00  0.000E+00  0.000E+00  1.04992E+03  6.676E-01  1.497E+01  5.241E-02  1.223E+00
   1    8    6     5     4    9.7343E+00  1.3577E-01   9.5985E+00  0.000E+00  0.000E+00  0.000E+00  1.04691E+03  6.637E-01  1.482E+01  3.706E-02  1.221E+00
   1    9    6     6     1    9.5985E+00  2.2097E-01   9.3776E+00  0.000E+00  0.000E+00  0.000E+00  1.04341E+03  6.828E-01  1.200E+01  6.000E-02  1.228E+00
   1   10    7     6     2    9.3776E+00  2.2039E-01   9.1572E+00  0.000E+00  0.000E+00  0.000E+00  1.03885E+03  6.732E-01  1.200E+01  6.000E-02  1.224E+00
   1   11    7     6     3    9.1572E+00  2.1981E-01   8.9374E+00  0.000E+00  0.000E+00  0.000E+00  1.03430E+03  6.636E-01  1.200E+01  6.000E-02  1.221E+00
   1   12    7     6     4    8.9374E+00  2.1923E-01   8.7181E+00  0.000E+00  0.000E+00  0.000E+00  1.02974E+03  6.539E-01  1.200E+01  6.000E-02  1.218E+00
   1   13    7     6     5    8.7181E+00 -5.5996E-03   8.7237E+00  0.000E+00  0.000E+00  0.000E+00  1.02656E+03  6.491E-01  1.200E+01  2.400E-01 -7.777E-03
   1   14    9     7     1    1.5000E+02  1.3930E+00   1.4861E+02  0.000E+00  0.000E+00  0.000E+00  1.03987E+03  2.288E+00  5.529E+01  5.593E-01  8.302E-01
   1   13    8     7     2    1.4861E+02  2.0001E+00   1.4661E+02  0.000E+00  0.000E+00  0.000E+00  1.03478E+03  2.279E+00  5.525E+01  6.147E-01  1.085E+00
   1   13    7     7     3    1.4661E+02  1.7345E+00   1.4487E+02  0.000E+00  0.000E+00  0.000E+00  1.02969E+03  2.269E+00  5.521E+01  5.584E-01  1.035E+00
   1   13    6     8     1    1.5360E+02  1.0853E+00   1.5251E+02  0.000E+00  0.000E+00  0.000E+00  1.02471E+03  2.838E+00  4.115E+01  4.194E-01  8.627E-01
   1   13    5     8     2    1.5251E+02  3.3844E-01   1.5217E+02  0.000E+00  0.000E+00  0.000E+00  1.01846E+03  2.833E+00  4.108E+01  4.186E-01  2.695E-01
   1   13    4     8     3    1.5217E+02 -1.8613E+00   1.5403E+02  0.000E+00  0.000E+00  0.000E+00  1.01221E+03  2.839E+00  4.116E+01  4.194E+00 -1.479E-01
   1   13    3     8     4    1.5403E+02 -3.3518E+00   1.5739E+02  0.000E+00  0.000E+00  0.000E+00  1.00598E+03  2.857E+00  4.142E+01  4.221E+00 -2.647E-01
   1   13    2     8     5    1.5739E+02 -2.5033E+00   1.5989E+02  0.000E+00  0.000E+00  0.000E+00  9.99752E+02  2.877E+00  4.171E+01  4.250E+00 -1.963E-01
   1   13    1     8     6    1.5989E+02 -1.9607E+00   1.6185E+02  0.000E+00  0.000E+00  0.000E+00  9.94767E+02  2.892E+00  4.193E+01  2.564E+00 -2.549E-01
   1    8    6     9     1    5.5396E+00  0.0000E+00   5.5396E+00  0.000E+00  0.000E+00  0.000E+00  1.08034E+03  1.590E+00  4.000E+00  0.000E+00  1.530E+00
   1    8    5     9     2    5.5396E+00  0.0000E+00   5.5396E+00  0.000E+00  0.000E+00  0.000E+00  1.07984E+03  1.590E+00  4.000E+00  0.000E+00  1.530E+00





UNSATURATED ZONE PACKAGE VOLUMETRIC BUDGET FOR  TIME STEP    30 STRESS PERIOD   46
  ------------------------------------------------------------------------------



     CUMULATIVE VOLUMES      L**3       RATES FOR THIS TIME STEP      L**3/T
     ------------------                 ------------------------

           IN:                                      IN:
           ---                                      ---
        INFILTRATION =  1704200911.4799          INFILTRATION =          12.0675

          OUT:                                     OUT:
          ----                                     ----
              UZF ET =  1697365402.1109                UZF ET =          12.0675
        UZF RECHARGE =       73224.0000          UZF RECHARGE =       0.0000E+00

            IN - OUT =     6762285.3690              IN - OUT =       0.0000E+00

          STORAGE:                                 STORAGE:
          --------                                 --------
      STORAGE CHANGE =     6762284.5008        STORAGE CHANGE =       1.3611E-14

 PERCENT DISCREPANCY IS DIFFERENCE BETWEEN IN-OUT MINUS CHANGE IN STORAGE
 DIVIDED BY THE AVERAGE OF IN AND OUT TIMES 100

 PERCENT DISCREPANCY =           0.00     PERCENT DISCREPANCY =           0.00






1
  VOLUMETRIC BUDGET FOR AGRICULTURAL FIELDS AT  END OF TIME STEP   30, STRESS PERIOD  46
  ------------------------------------------------------------------------------

     CUMULATIVE VOLUMES      L**3       RATES FOR THIS TIME STEP      L**3/T
     ------------------                 ------------------------

           IN:                                      IN:
           ---                                      ---
           AG WELLS      =   855545344.0000             AG WELLS      =           5.6803
      DIVERSION SEGMENTS =   748360192.0000        DIVERSION SEGMENTS =           5.5396
           GW IRRIGATION =           0.0000             GW IRRIGATION =           0.0000
           SW IRRIGATION =           0.0000             SW IRRIGATION =           0.0000
        SYSTEM LOSSES GW =           0.0000          SYSTEM LOSSES GW =           0.0000
        SYSTEM LOSSES SW =           0.0000          SYSTEM LOSSES SW =           0.0000

                TOTAL IN =  1603905536.0000                  TOTAL IN =          11.2199

          OUT:                                     OUT:
          ----                                     ----
           AG WELLS      =           0.0000             AG WELLS      =           0.0000
      DIVERSION SEGMENTS =           0.0000        DIVERSION SEGMENTS =           0.0000
           GW IRRIGATION =   855545344.0000             GW IRRIGATION =           5.6803
           SW IRRIGATION =   748373312.0000             SW IRRIGATION =           5.5397
        SYSTEM LOSSES GW =           0.0000          SYSTEM LOSSES GW =           0.0000
        SYSTEM LOSSES SW =           0.0000          SYSTEM LOSSES SW =           0.0000

               TOTAL OUT =  1603918592.0000                 TOTAL OUT =          11.2200

                IN - OUT =      -13056.0000                  IN - OUT =      -1.1063E-04

     PERCENT DISCREPANCY =          -0.00         PERCENT DISCREPANCY =          -0.00



1
  VOLUMETRIC BUDGET FOR ENTIRE MODEL AT END OF TIME STEP   30, STRESS PERIOD  46
  ------------------------------------------------------------------------------

     CUMULATIVE VOLUMES      L**3       RATES FOR THIS TIME STEP      L**3/T
     ------------------                 ------------------------

           IN:                                      IN:
           ---                                      ---
             STORAGE     =  1177792000.0000               STORAGE     =          12.0072
       CONSTANT HEAD     =           0.0000         CONSTANT HEAD     =           0.0000
     HEAD DEP BOUNDS     =    34171508.0000       HEAD DEP BOUNDS     =           0.2897
      STREAM LEAKAGE     =  1406435328.0000        STREAM LEAKAGE     =          11.6684
        UZF RECHARGE     =       73223.9531          UZF RECHARGE     =           0.0000
               GW ET     =           0.0000                 GW ET     =           0.0000
     SURFACE LEAKAGE     =           0.0000       SURFACE LEAKAGE     =           0.0000
           AG WELLS      =           0.0000             AG WELLS      =           0.0000

                TOTAL IN =  2618471936.0000                  TOTAL IN =          23.9653

          OUT:                                     OUT:
          ----                                     ----
             STORAGE     =   542344960.0000               STORAGE     =           8.3160
       CONSTANT HEAD     =           0.0000         CONSTANT HEAD     =           0.0000
     HEAD DEP BOUNDS     =    34086612.0000       HEAD DEP BOUNDS     =           0.2862
      STREAM LEAKAGE     =  1186513408.0000        STREAM LEAKAGE     =           9.6826
        UZF RECHARGE     =           0.0000          UZF RECHARGE     =           0.0000
               GW ET     =           0.0000                 GW ET     =           0.0000
     SURFACE LEAKAGE     =           0.0000       SURFACE LEAKAGE     =           0.0000
           AG WELLS      =   855545344.0000             AG WELLS      =           5.6803

               TOTAL OUT =  2618490368.0000                 TOTAL OUT =          23.9650

                IN - OUT =      -18432.0000                  IN - OUT =       2.4796E-04

     PERCENT DISCREPANCY =          -0.00         PERCENT DISCREPANCY =           0.00






         TIME SUMMARY AT END OF TIME STEP   30 IN STRESS PERIOD   46
                    SECONDS     MINUTES      HOURS       DAYS        YEARS
                    -----------------------------------------------------------
   TIME STEP LENGTH  87667.      1461.1      24.352      1.0147     2.77799E-03
 STRESS PERIOD TIME 2.63000E+06  43833.      730.56      30.440     8.33397E-02
         TOTAL TIME 1.18435E+08 1.97392E+06  32899.      1370.8      3.7530    
1
1
                            STRESS PERIOD NO.   47, LENGTH =   2630000.    
                            -----------------------------------------------

                              NUMBER OF TIME STEPS =    30

                               MULTIPLIER FOR DELT =     1.000

                            INITIAL TIME STEP SIZE =   87666.66    

 REUSING NON-PARAMETER GHB CELLS FROM LAST STRESS PERIOD

      2 GHB CELLS

 REUSING STREAM SEGMENT DATA FROM LAST STRESS PERIOD



            AREAL INFILTRATION RATE
 READING ON UNIT   19 WITH FORMAT: (FREE)              

            1           2           3           4           5           6           7           8           9          10
 ........................................................................................................................
   1   1.0000E-10  2.0000E-10   0.000       0.000       0.000       0.000       0.000       0.000       0.000       0.000    
   2   2.0000E-10  1.0000E-10  2.0000E-10   0.000       0.000      8.0000E-10  8.0000E-10  5.0000E-10   0.000       0.000    
   3    0.000      5.0000E-10  1.0000E-10  1.0000E-10  8.0000E-10  8.0000E-10  5.0000E-10  5.0000E-10   0.000       0.000    
   4   8.0000E-10  5.0000E-10  1.0000E-10  1.0000E-10  1.0000E-10  1.0000E-10  1.0000E-10  1.0000E-10  2.0000E-10   0.000    
   5   8.0000E-10  5.0000E-10  1.0000E-10  1.0000E-10  1.0000E-10  1.0000E-10  1.0000E-10  1.0000E-10  1.0000E-10  1.0000E-10
   6   8.0000E-10  5.0000E-10  5.0000E-10  2.0000E-10  2.0000E-10  1.0000E-10  1.0000E-10  1.0000E-10  1.0000E-10  5.0000E-10
   7   8.0000E-10  5.0000E-10  5.0000E-10  2.0000E-10  2.0000E-10  1.0000E-10  1.0000E-10  2.0000E-10  2.0000E-10   0.000    
   8    0.000      5.0000E-10  5.0000E-10  2.0000E-10  2.0000E-10  1.0000E-10  1.0000E-10  2.0000E-10  5.0000E-10   0.000    
   9    0.000      5.0000E-10  5.0000E-10  2.0000E-10  2.0000E-10  1.0000E-10  1.0000E-10  2.0000E-10  5.0000E-10   0.000    
  10    0.000      5.0000E-10  5.0000E-10  2.0000E-10  2.0000E-10  1.0000E-10  1.0000E-10  2.0000E-10  5.0000E-10  8.0000E-10
  11    0.000      1.0000E-10  1.0000E-10  1.0000E-10  1.0000E-10  1.0000E-10  1.0000E-10  2.0000E-10  5.0000E-10   0.000    
  12   1.0000E-10  1.0000E-10  1.0000E-10  1.0000E-10  1.0000E-10  1.0000E-10  1.0000E-10  1.0000E-10  2.0000E-10   0.000    
  13   1.0000E-10  1.0000E-10  2.0000E-10  2.0000E-10  2.0000E-10  2.0000E-10  2.0000E-10  1.0000E-10  1.0000E-10   0.000    
  14    0.000      2.0000E-10  5.0000E-10  5.0000E-10  5.0000E-10  5.0000E-10  5.0000E-10  2.0000E-10  1.0000E-10   0.000    
  15    0.000       0.000      8.0000E-10  8.0000E-10  8.0000E-10  8.0000E-10   0.000       0.000       0.000       0.000    

                  ET RATE =  5.000000E-09

 USING ET EXTINCTION DEPTH FROM PREVIOUS STRESS PERIOD. CURRENT PERIOD IS:      47

 USING EXTINCTION WATER CONTENT FROM PREVIOUS STRESS PERIOD. CURRENT PERIOD IS:      47

 USING AIR ENTRY PRESSURE FROM PREVIOUS STRESS PERIOD. CURRENT PERIOD IS:      47

 USING ROOT PRESSURE HEAD FROM PREVIOUS STRESS PERIOD. CURRENT PERIOD IS:      47

 USING ROOT ACTIVITY FROM PREVIOUS STRESS PERIOD. CURRENT PERIOD IS:      47

 PROCESSING AG STRESS PERIOD DATA

 READING AG STRESS PERIOD DATA

 READING IRRIGATION SEGMENT

 READING IRRIGATION WELL

 READING SUPPLEMENTAL WELL

 END PROCESSING AG STRESS PERIOD DATA OPTIONS
 
 SOLVING FOR HEAD 
                                                   Max.-Head-Change                         Max.-Flux-Residual
  Residual-Control   Outer-Iter.   Inner-Iter.     Column Row Layer    Maximum-Head-Change  Column Row Layer    Maximum-Flux-Residual          L2-NORM 
          0                 1           2             4    7     1       0.5155611658E-01       4    7    1         0.2709198998E+01      0.5997821069E+01
          0                 2           2             4    7     1      -0.5015035981E-02       4    7    1        -0.2709220695E+00      0.6010408819E+00
          0                 3           2             4    7     1       0.3415046884E-03       4    7    1         0.1896451266E-01      0.4207129623E-01
          0                 4           1             4    7     1      -0.1358879262E-04       4    7    1        -0.7756497403E-03      0.1720602015E-02

    ------------------------------------------------
       NWT REQUIRED            4 OUTER ITERATIONS 
       AND A TOTAL OF          7 INNER ITERATIONS.
    ------------------------------------------------

 NO OUTPUT CONTROL FOR STRESS PERIOD   47   TIME STEP    1
 
 SOLVING FOR HEAD 
                                                   Max.-Head-Change                         Max.-Flux-Residual
  Residual-Control   Outer-Iter.   Inner-Iter.     Column Row Layer    Maximum-Head-Change  Column Row Layer    Maximum-Flux-Residual          L2-NORM 
          0                 1           2             4    7     1       0.5096381368E-01       4    7    1         0.2678728121E+01      0.5880430762E+01
          0                 2           2             4    7     1      -0.4957422190E-02       4    7    1        -0.2678750517E+00      0.5880260577E+00
          0                 3           2             5    6     1      -0.1918526212E-02       5    8    1        -0.1056590971E+00      0.2559663993E+00
          0                 4           2             4    7     1       0.2297735722E-02       5    8    1         0.1270834119E+00      0.3109634268E+00
          0                 5           1             4    7     1      -0.9145094108E-04       5    8    1        -0.5200626027E-02      0.1272447912E-01

    ------------------------------------------------
       NWT REQUIRED            5 OUTER ITERATIONS 
       AND A TOTAL OF          9 INNER ITERATIONS.
    ------------------------------------------------

 NO OUTPUT CONTROL FOR STRESS PERIOD   47   TIME STEP    2
 
 SOLVING FOR HEAD 
                                                   Max.-Head-Change                         Max.-Flux-Residual
  Residual-Control   Outer-Iter.   Inner-Iter.     Column Row Layer    Maximum-Head-Change  Column Row Layer    Maximum-Flux-Residual          L2-NORM 
          0                 1           2             4    7     1       0.5036681949E-01       4    7    1         0.2647953111E+01      0.5766659830E+01
          0                 2           2             4    7     1      -0.4899351372E-02       4    7    1        -0.2647975816E+00      0.5766510604E+00
          0                 3           2             5    6     1      -0.1925632224E-02       5    8    1        -0.1060594505E+00      0.2567766387E+00
          0                 4           2             4    7     1       0.2298436829E-02       5    8    1         0.1271332625E+00      0.3110743575E+00
          0                 5           1             4    7     1      -0.9147884539E-04       5    8    1        -0.5202659607E-02      0.1272901087E-01

    ------------------------------------------------
       NWT REQUIRED            5 OUTER ITERATIONS 
       AND A TOTAL OF          9 INNER ITERATIONS.
    ------------------------------------------------

 NO OUTPUT CONTROL FOR STRESS PERIOD   47   TIME STEP    3
 
 SOLVING FOR HEAD 
                                                   Max.-Head-Change                         Max.-Flux-Residual
  Residual-Control   Outer-Iter.   Inner-Iter.     Column Row Layer    Maximum-Head-Change  Column Row Layer    Maximum-Flux-Residual          L2-NORM 
          0                 1           2             4    7     1       0.4976635255E-01       4    7    1         0.2616941803E+01      0.5656991914E+01
          0                 2           2             4    7     1      -0.4840942591E-02       4    7    1        -0.2616964713E+00      0.5656861465E+00
          0                 3           2             5    6     1      -0.1932383510E-02       5    8    1        -0.1064384846E+00      0.2575574699E+00
          0                 4           2             4    7     1       0.2299088925E-02       5    8    1         0.1271790220E+00      0.3111768048E+00
          0                 5           1             4    7     1      -0.9150462339E-04       5    8    1        -0.5204516244E-02      0.1273317479E-01

    ------------------------------------------------
       NWT REQUIRED            5 OUTER ITERATIONS 
       AND A TOTAL OF          9 INNER ITERATIONS.
    ------------------------------------------------

 NO OUTPUT CONTROL FOR STRESS PERIOD   47   TIME STEP    4
 
 SOLVING FOR HEAD 
                                                   Max.-Head-Change                         Max.-Flux-Residual
  Residual-Control   Outer-Iter.   Inner-Iter.     Column Row Layer    Maximum-Head-Change  Column Row Layer    Maximum-Flux-Residual          L2-NORM 
          0                 1           2             4    7     1       0.4916315637E-01       4    7    1         0.2585735883E+01      0.5551185537E+01
          0                 2           2             4    7     1      -0.4782268453E-02       4    7    1        -0.2585759047E+00      0.5551071314E+00
          0                 3           2             5    6     1      -0.1938820958E-02       5    8    1        -0.1067985996E+00      0.2583127559E+00
          0                 4           2             4    7     1       0.2299715350E-02       5    8    1         0.1272220798E+00      0.3112740331E+00
          0                 5           1             4    7     1      -0.9152955600E-04       5    8    1        -0.5206272586E-02      0.1273714227E-01

    ------------------------------------------------
       NWT REQUIRED            5 OUTER ITERATIONS 
       AND A TOTAL OF          9 INNER ITERATIONS.
    ------------------------------------------------

 NO OUTPUT CONTROL FOR STRESS PERIOD   47   TIME STEP    5
 
 SOLVING FOR HEAD 
                                                   Max.-Head-Change                         Max.-Flux-Residual
  Residual-Control   Outer-Iter.   Inner-Iter.     Column Row Layer    Maximum-Head-Change  Column Row Layer    Maximum-Flux-Residual          L2-NORM 
          0                 1           2             4    7     1       0.4855831279E-01       4    7    1         0.2554395709E+01      0.5449025413E+01
          0                 2           2             4    7     1      -0.4723433505E-02       4    7    1        -0.2554418992E+00      0.5448859780E+00
          0                 3           2             5    6     1      -0.1944964700E-02       5    8    1        -0.1071410381E+00      0.2590433373E+00
          0                 4           2             4    7     1       0.2300317950E-02       5    8    1         0.1272626415E+00      0.3113664250E+00
          0                 5           1             4    7     1      -0.9155353949E-04       5    8    1        -0.5207927158E-02      0.1274092393E-01

    ------------------------------------------------
       NWT REQUIRED            5 OUTER ITERATIONS 
       AND A TOTAL OF          9 INNER ITERATIONS.
    ------------------------------------------------

 NO OUTPUT CONTROL FOR STRESS PERIOD   47   TIME STEP    6
 
 SOLVING FOR HEAD 
                                                   Max.-Head-Change                         Max.-Flux-Residual
  Residual-Control   Outer-Iter.   Inner-Iter.     Column Row Layer    Maximum-Head-Change  Column Row Layer    Maximum-Flux-Residual          L2-NORM 
          0                 1           2             4    7     1       0.4795268312E-01       4    7    1         0.2522970121E+01      0.5351054281E+01
          0                 2           2             4    7     1      -0.4664522846E-02       4    7    1        -0.2522993552E+00      0.5350996927E+00
          0                 3           2             5    6     1      -0.1950835323E-02       5    8    1        -0.1074669693E+00      0.2597670085E+00
          0                 4           2             4    7     1       0.2300898105E-02       5    8    1         0.1272999928E+00      0.3114536925E+00
          0                 5           1             4    7     1      -0.9157627936E-04       5    6    1        -0.5208751753E-02      0.1274352889E-01

    ------------------------------------------------
       NWT REQUIRED            5 OUTER ITERATIONS 
       AND A TOTAL OF          9 INNER ITERATIONS.
    ------------------------------------------------

 NO OUTPUT CONTROL FOR STRESS PERIOD   47   TIME STEP    7
 
 SOLVING FOR HEAD 
                                                   Max.-Head-Change                         Max.-Flux-Residual
  Residual-Control   Outer-Iter.   Inner-Iter.     Column Row Layer    Maximum-Head-Change  Column Row Layer    Maximum-Flux-Residual          L2-NORM 
          0                 1           2             4    7     1       0.4734707036E-01       4    7    1         0.2491503724E+01      0.5256391388E+01
          0                 2           2             4    7     1      -0.4605613153E-02       4    7    1        -0.2491527107E+00      0.5256360223E+00
          0                 3           2             5    6     1      -0.1956447249E-02       5    8    1        -0.1077776225E+00      0.2604638342E+00
          0                 4           2             4    7     1       0.2301457977E-02       5    8    1         0.1273361859E+00      0.3115371655E+00
          0                 5           1             4    7     1      -0.9159891285E-04       5    6    1        -0.5210252893E-02      0.1274658423E-01

    ------------------------------------------------
       NWT REQUIRED            5 OUTER ITERATIONS 
       AND A TOTAL OF          9 INNER ITERATIONS.
    ------------------------------------------------

 NO OUTPUT CONTROL FOR STRESS PERIOD   47   TIME STEP    8
 
 SOLVING FOR HEAD 
                                                   Max.-Head-Change                         Max.-Flux-Residual
  Residual-Control   Outer-Iter.   Inner-Iter.     Column Row Layer    Maximum-Head-Change  Column Row Layer    Maximum-Flux-Residual          L2-NORM 
          0                 1           2             4    7     1       0.4674234947E-01       4    7    1         0.2460045479E+01      0.5164079843E+01
          0                 2           2             4    7     1      -0.4546790259E-02       4    7    1        -0.2460068826E+00      0.5164050643E+00
          0                 3           2             5    6     1      -0.1961814474E-02       5    8    1        -0.1080739069E+00      0.2611265777E+00
          0                 4           2             4    7     1       0.2301997606E-02       5    8    1         0.1273703503E+00      0.3116167673E+00
          0                 5           1             4    7     1      -0.9162039033E-04       5    6    1        -0.5211653333E-02      0.1274951787E-01

    ------------------------------------------------
       NWT REQUIRED            5 OUTER ITERATIONS 
       AND A TOTAL OF          9 INNER ITERATIONS.
    ------------------------------------------------

 NO OUTPUT CONTROL FOR STRESS PERIOD   47   TIME STEP    9
 
 SOLVING FOR HEAD 
                                                   Max.-Head-Change                         Max.-Flux-Residual
  Residual-Control   Outer-Iter.   Inner-Iter.     Column Row Layer    Maximum-Head-Change  Column Row Layer    Maximum-Flux-Residual          L2-NORM 
          0                 1           2             4    7     1       0.4613893244E-01       4    7    1         0.2428618916E+01      0.5074693534E+01
          0                 2           2             4    7     1      -0.4488094118E-02       4    7    1        -0.2428642176E+00      0.5074618559E+00
          0                 3           2             5    6     1      -0.1966949970E-02       5    8    1        -0.1083566138E+00      0.2617694494E+00
          0                 4           2             4    7     1       0.2302519380E-02       5    8    1         0.1274026778E+00      0.3116930393E+00
          0                 5           1             4    7     1      -0.9164115701E-04       5    6    1        -0.5212980321E-02      0.1275264407E-01

    ------------------------------------------------
       NWT REQUIRED            5 OUTER ITERATIONS 
       AND A TOTAL OF          9 INNER ITERATIONS.
    ------------------------------------------------

 NO OUTPUT CONTROL FOR STRESS PERIOD   47   TIME STEP   10
 
 SOLVING FOR HEAD 
                                                   Max.-Head-Change                         Max.-Flux-Residual
  Residual-Control   Outer-Iter.   Inner-Iter.     Column Row Layer    Maximum-Head-Change  Column Row Layer    Maximum-Flux-Residual          L2-NORM 
          0                 1           2             4    7     1       0.4553758715E-01       4    7    1         0.2397267213E+01      0.4988085995E+01
          0                 2           2             4    7     1      -0.4429599437E-02       4    7    1        -0.2397290344E+00      0.4988066444E+00
          0                 3           2             5    6     1      -0.1971868464E-02       5    8    1        -0.1086264924E+00      0.2623915211E+00
          0                 4           2             4    7     1       0.2303023270E-02       5    8    1         0.1274332382E+00      0.3117654140E+00
          0                 5           1             4    7     1      -0.9166138731E-04       5    8    1        -0.5213989941E-02      0.1275522205E-01

    ------------------------------------------------
       NWT REQUIRED            5 OUTER ITERATIONS 
       AND A TOTAL OF          9 INNER ITERATIONS.
    ------------------------------------------------

 NO OUTPUT CONTROL FOR STRESS PERIOD   47   TIME STEP   11
 
 SOLVING FOR HEAD 
                                                   Max.-Head-Change                         Max.-Flux-Residual
  Residual-Control   Outer-Iter.   Inner-Iter.     Column Row Layer    Maximum-Head-Change  Column Row Layer    Maximum-Flux-Residual          L2-NORM 
          0                 1           2             4    7     1       0.4493889274E-01       4    7    1         0.2366022913E+01      0.4904129434E+01
          0                 2           2             4    7     1      -0.4371363093E-02       4    7    1        -0.2366046163E+00      0.4904113770E+00
          0                 3           2             5    6     1      -0.1976579162E-02       5    8    1        -0.1088843783E+00      0.2629957012E+00
          0                 4           2             4    7     1       0.2303510092E-02       5    8    1         0.1274614634E+00      0.3118342486E+00
          0                 5           1             4    7     1      -0.9168093823E-04       5    8    1        -0.5214438839E-02      0.1275725218E-01

    ------------------------------------------------
       NWT REQUIRED            5 OUTER ITERATIONS 
       AND A TOTAL OF          9 INNER ITERATIONS.
    ------------------------------------------------

 NO OUTPUT CONTROL FOR STRESS PERIOD   47   TIME STEP   12
 
 SOLVING FOR HEAD 
                                                   Max.-Head-Change                         Max.-Flux-Residual
  Residual-Control   Outer-Iter.   Inner-Iter.     Column Row Layer    Maximum-Head-Change  Column Row Layer    Maximum-Flux-Residual          L2-NORM 
          0                 1           2             4    7     1       0.4434350506E-01       4    7    1         0.2334923319E+01      0.4822683888E+01
          0                 2           2             4    7     1      -0.4313447675E-02       4    7    1        -0.2334946290E+00      0.4822670828E+00
          0                 3           2             5    6     1      -0.1981097897E-02       5    8    1        -0.1091310004E+00      0.2635820482E+00
          0                 4           2             4    7     1       0.2303981225E-02       5    8    1         0.1274888945E+00      0.3119006296E+00
          0                 5           1             4    7     1      -0.9169933924E-04       5    8    1        -0.5215541161E-02      0.1275991753E-01

    ------------------------------------------------
       NWT REQUIRED            5 OUTER ITERATIONS 
       AND A TOTAL OF          9 INNER ITERATIONS.
    ------------------------------------------------

 NO OUTPUT CONTROL FOR STRESS PERIOD   47   TIME STEP   13
 
 SOLVING FOR HEAD 
                                                   Max.-Head-Change                         Max.-Flux-Residual
  Residual-Control   Outer-Iter.   Inner-Iter.     Column Row Layer    Maximum-Head-Change  Column Row Layer    Maximum-Flux-Residual          L2-NORM 
          0                 1           2             4    7     1       0.4375163242E-01       4    7    1         0.2303980609E+01      0.4743633674E+01
          0                 2           2             4    7     1      -0.4255874405E-02       4    7    1        -0.2304003419E+00      0.4743623138E+00
          0                 3           2             5    6     1      -0.1985432872E-02       5    8    1        -0.1093670081E+00      0.2641513245E+00
          0                 4           2             4    7     1       0.2304438379E-02       5    8    1         0.1275149491E+00      0.3119642479E+00
          0                 5           1             4    7     1      -0.9171753418E-04       5    8    1        -0.5216607067E-02      0.1276251965E-01

    ------------------------------------------------
       NWT REQUIRED            5 OUTER ITERATIONS 
       AND A TOTAL OF          9 INNER ITERATIONS.
    ------------------------------------------------

 NO OUTPUT CONTROL FOR STRESS PERIOD   47   TIME STEP   14
 
 SOLVING FOR HEAD 
                                                   Max.-Head-Change                         Max.-Flux-Residual
  Residual-Control   Outer-Iter.   Inner-Iter.     Column Row Layer    Maximum-Head-Change  Column Row Layer    Maximum-Flux-Residual          L2-NORM 
          0                 1           2             4    7     1       0.4316398334E-01       4    7    1         0.2273234687E+01      0.4666871468E+01
          0                 2           2             4    7     1      -0.4198711448E-02       4    7    1        -0.2273257049E+00      0.4666862417E+00
          0                 3           2             5    6     1      -0.1989595341E-02       5    8    1        -0.1095931445E+00      0.2647041864E+00
          0                 4           2             4    7     1       0.2304881793E-02       5    8    1         0.1275397043E+00      0.3120252101E+00
          0                 5           1             4    7     1      -0.9173518202E-04       5    8    1        -0.5217619765E-02      0.1276501589E-01

    ------------------------------------------------
       NWT REQUIRED            5 OUTER ITERATIONS 
       AND A TOTAL OF          9 INNER ITERATIONS.
    ------------------------------------------------

 NO OUTPUT CONTROL FOR STRESS PERIOD   47   TIME STEP   15
 
 SOLVING FOR HEAD 
                                                   Max.-Head-Change                         Max.-Flux-Residual
  Residual-Control   Outer-Iter.   Inner-Iter.     Column Row Layer    Maximum-Head-Change  Column Row Layer    Maximum-Flux-Residual          L2-NORM 
          0                 1           2             4    7     1       0.4258081462E-01       4    7    1         0.2242700462E+01      0.4592296130E+01
          0                 2           2             4    7     1      -0.4141984619E-02       4    7    1        -0.2242722539E+00      0.4592288948E+00
          0                 3           2             5    6     1      -0.1993593822E-02       5    8    1        -0.1098098288E+00      0.2652413505E+00
          0                 4           2             4    7     1       0.2305311182E-02       5    8    1         0.1275631818E+00      0.3120835477E+00
          0                 5           1             4    7     1      -0.9175227195E-04       5    8    1        -0.5218580234E-02      0.1276740556E-01

    ------------------------------------------------
       NWT REQUIRED            5 OUTER ITERATIONS 
       AND A TOTAL OF          9 INNER ITERATIONS.
    ------------------------------------------------

 NO OUTPUT CONTROL FOR STRESS PERIOD   47   TIME STEP   16
 
 SOLVING FOR HEAD 
                                                   Max.-Head-Change                         Max.-Flux-Residual
  Residual-Control   Outer-Iter.   Inner-Iter.     Column Row Layer    Maximum-Head-Change  Column Row Layer    Maximum-Flux-Residual          L2-NORM 
          0                 1           2             4    7     1       0.4200248095E-01       4    7    1         0.2212398524E+01      0.4519805751E+01
          0                 2           2             4    7     1      -0.4085727885E-02       4    7    1        -0.2212420191E+00      0.4519799873E+00
          0                 3           2             5    6     1      -0.1997437235E-02       5    8    1        -0.1100176669E+00      0.2657634829E+00
          0                 4           2             4    7     1       0.2305727794E-02       5    8    1         0.1275854960E+00      0.3121394883E+00
          0                 5           1             4    7     1      -0.9176902836E-04       5    8    1        -0.5219503034E-02      0.1276971258E-01

    ------------------------------------------------
       NWT REQUIRED            5 OUTER ITERATIONS 
       AND A TOTAL OF          9 INNER ITERATIONS.
    ------------------------------------------------

 NO OUTPUT CONTROL FOR STRESS PERIOD   47   TIME STEP   17
 
 SOLVING FOR HEAD 
                                                   Max.-Head-Change                         Max.-Flux-Residual
  Residual-Control   Outer-Iter.   Inner-Iter.     Column Row Layer    Maximum-Head-Change  Column Row Layer    Maximum-Flux-Residual          L2-NORM 
          0                 1           2             4    7     1       0.4142930233E-01       4    7    1         0.2182347263E+01      0.4449311726E+01
          0                 2           2             4    7     1      -0.4029972820E-02       4    7    1        -0.2182368637E+00      0.4449307538E+00
          0                 3           2             5    6     1      -0.2001133338E-02       5    8    1        -0.1102171349E+00      0.2662706248E+00
          0                 4           2             4    7     1       0.2306131739E-02       5    8    1         0.1276066953E+00      0.3121930954E+00
          0                 5           1             4    7     1      -0.9178493050E-04       5    8    1        -0.5220360379E-02      0.1277188098E-01

    ------------------------------------------------
       NWT REQUIRED            5 OUTER ITERATIONS 
       AND A TOTAL OF          9 INNER ITERATIONS.
    ------------------------------------------------

 NO OUTPUT CONTROL FOR STRESS PERIOD   47   TIME STEP   18
 
 SOLVING FOR HEAD 
                                                   Max.-Head-Change                         Max.-Flux-Residual
  Residual-Control   Outer-Iter.   Inner-Iter.     Column Row Layer    Maximum-Head-Change  Column Row Layer    Maximum-Flux-Residual          L2-NORM 
          0                 1           2             4    7     1       0.4086169885E-01       4    7    1         0.2152570552E+01      0.4380730186E+01
          0                 2           2             4    7     1      -0.3974759987E-02       4    7    1        -0.2152591588E+00      0.4380727063E+00
          0                 3           2             5    6     1      -0.2004691492E-02       5    8    1        -0.1104087364E+00      0.2667642957E+00
          0                 4           2             4    7     1       0.2306524583E-02       5    8    1         0.1276269043E+00      0.3122446505E+00
          0                 5           1             4    7     1      -0.9180056578E-04       5    8    1        -0.5221187121E-02      0.1277399184E-01

    ------------------------------------------------
       NWT REQUIRED            5 OUTER ITERATIONS 
       AND A TOTAL OF          9 INNER ITERATIONS.
    ------------------------------------------------

 NO OUTPUT CONTROL FOR STRESS PERIOD   47   TIME STEP   19
 
 SOLVING FOR HEAD 
                                                   Max.-Head-Change                         Max.-Flux-Residual
  Residual-Control   Outer-Iter.   Inner-Iter.     Column Row Layer    Maximum-Head-Change  Column Row Layer    Maximum-Flux-Residual          L2-NORM 
          0                 1           2             4    7     1       0.4029991839E-01       4    7    1         0.2123082894E+01      0.4313979061E+01
          0                 2           2             4    7     1      -0.3920113501E-02       4    7    1        -0.2123103550E+00      0.4313977023E+00
          0                 3           2             5    6     1      -0.2008118390E-02       5    8    1        -0.1105929376E+00      0.2672444148E+00
          0                 4           2             4    7     1       0.2306905742E-02       5    8    1         0.1276461307E+00      0.3122941163E+00
          0                 5           1             4    7     1      -0.9181556060E-04       5    8    1        -0.5221963719E-02      0.1277599168E-01

    ------------------------------------------------
       NWT REQUIRED            5 OUTER ITERATIONS 
       AND A TOTAL OF          9 INNER ITERATIONS.
    ------------------------------------------------

 NO OUTPUT CONTROL FOR STRESS PERIOD   47   TIME STEP   20
 
 SOLVING FOR HEAD 
                                                   Max.-Head-Change                         Max.-Flux-Residual
  Residual-Control   Outer-Iter.   Inner-Iter.     Column Row Layer    Maximum-Head-Change  Column Row Layer    Maximum-Flux-Residual          L2-NORM 
          0                 1           2             4    7     1       0.3974404726E-01       4    7    1         0.2093889858E+01      0.4248983181E+01
          0                 2           2             4    7     1      -0.3866041996E-02       4    7    1        -0.2093910222E+00      0.4248982375E+00
          0                 3           2             5    6     1      -0.2011419968E-02       5    8    1        -0.1107701012E+00      0.2677115658E+00
          0                 4           2             4    7     1       0.2307276423E-02       5    8    1         0.1276644671E+00      0.3123416995E+00
          0                 5           1             4    7     1      -0.9183048887E-04       5    8    1        -0.5222723791E-02      0.1277796472E-01

    ------------------------------------------------
       NWT REQUIRED            5 OUTER ITERATIONS 
       AND A TOTAL OF          9 INNER ITERATIONS.
    ------------------------------------------------

 NO OUTPUT CONTROL FOR STRESS PERIOD   47   TIME STEP   21
 
 SOLVING FOR HEAD 
                                                   Max.-Head-Change                         Max.-Flux-Residual
  Residual-Control   Outer-Iter.   Inner-Iter.     Column Row Layer    Maximum-Head-Change  Column Row Layer    Maximum-Flux-Residual          L2-NORM 
          0                 1           2             4    7     1       0.3919441816E-01       4    7    1         0.2065010484E+01      0.4185676119E+01
          0                 2           2             4    7     1      -0.3812577811E-02       4    7    1        -0.2065030627E+00      0.4185676560E+00
          0                 3           2             5    6     1      -0.2014602856E-02       5    8    1        -0.1109405668E+00      0.2681659070E+00
          0                 4           2             4    7     1       0.2307636369E-02       5    8    1         0.1276819298E+00      0.3123873865E+00
          0                 5           1             4    7     1      -0.9184481514E-04       5    8    1        -0.5223438182E-02      0.1277983091E-01

    ------------------------------------------------
       NWT REQUIRED            5 OUTER ITERATIONS 
       AND A TOTAL OF          9 INNER ITERATIONS.
    ------------------------------------------------

 NO OUTPUT CONTROL FOR STRESS PERIOD   47   TIME STEP   22
 
 SOLVING FOR HEAD 
                                                   Max.-Head-Change                         Max.-Flux-Residual
  Residual-Control   Outer-Iter.   Inner-Iter.     Column Row Layer    Maximum-Head-Change  Column Row Layer    Maximum-Flux-Residual          L2-NORM 
          0                 1           2             4    7     1       0.3865120013E-01       4    7    1         0.2036454740E+01      0.4123995238E+01
          0                 2           2             4    7     1      -0.3759736561E-02       4    7    1        -0.2036474294E+00      0.4123995684E+00
          0                 3           2             5    6     1      -0.2017674178E-02       5    8    1        -0.1111048673E+00      0.2686092185E+00
          0                 4           2             4    7     1       0.2307987152E-02       5    8    1         0.1276986379E+00      0.3124314749E+00
          0                 5           1             4    7     1      -0.9185912679E-04       5    8    1        -0.5224141591E-02      0.1278171718E-01

    ------------------------------------------------
       NWT REQUIRED            5 OUTER ITERATIONS 
       AND A TOTAL OF          9 INNER ITERATIONS.
    ------------------------------------------------

 NO OUTPUT CONTROL FOR STRESS PERIOD   47   TIME STEP   23
 
 SOLVING FOR HEAD 
                                                   Max.-Head-Change                         Max.-Flux-Residual
  Residual-Control   Outer-Iter.   Inner-Iter.     Column Row Layer    Maximum-Head-Change  Column Row Layer    Maximum-Flux-Residual          L2-NORM 
          0                 1           2             4    7     1       0.3811453461E-01       4    7    1         0.2008231390E+01      0.4063860299E+01
          0                 2           2             4    7     1      -0.3707533249E-02       4    7    1        -0.2008250669E+00      0.4063704156E+00
          0                 3           2             5    6     1      -0.2020639170E-02       5    8    1        -0.1112632007E+00      0.2690403067E+00
          0                 4           2             4    7     1       0.2308327965E-02       5    8    1         0.1277145732E+00      0.3124738387E+00
          0                 5           1             4    7     1      -0.9187251625E-04       5    8    1        -0.5224783549E-02      0.1278339159E-01

    ------------------------------------------------
       NWT REQUIRED            5 OUTER ITERATIONS 
       AND A TOTAL OF          9 INNER ITERATIONS.
    ------------------------------------------------

 NO OUTPUT CONTROL FOR STRESS PERIOD   47   TIME STEP   24
 
 SOLVING FOR HEAD 
                                                   Max.-Head-Change                         Max.-Flux-Residual
  Residual-Control   Outer-Iter.   Inner-Iter.     Column Row Layer    Maximum-Head-Change  Column Row Layer    Maximum-Flux-Residual          L2-NORM 
          0                 1           2             4    7     1       0.3758441127E-01       4    7    1         0.1980340488E+01      0.4005241743E+01
          0                 2           2             4    7     1      -0.3655966104E-02       4    7    1        -0.1980359347E+00      0.4005243533E+00
          0                 3           2             5    6     1      -0.2023501965E-02       5    8    1        -0.1114158595E+00      0.2694605565E+00
          0                 4           2             4    7     1       0.2308660175E-02       5    8    1         0.1277298231E+00      0.3125147113E+00
          0                 5           1             4    7     1      -0.9188556309E-04       5    8    1        -0.5225397490E-02      0.1278503332E-01

    ------------------------------------------------
       NWT REQUIRED            5 OUTER ITERATIONS 
       AND A TOTAL OF          9 INNER ITERATIONS.
    ------------------------------------------------

 NO OUTPUT CONTROL FOR STRESS PERIOD   47   TIME STEP   25
 
 SOLVING FOR HEAD 
                                                   Max.-Head-Change                         Max.-Flux-Residual
  Residual-Control   Outer-Iter.   Inner-Iter.     Column Row Layer    Maximum-Head-Change  Column Row Layer    Maximum-Flux-Residual          L2-NORM 
          0                 1           2             4    7     1       0.3706120543E-01       4    7    1         0.1952803343E+01      0.3948074021E+01
          0                 2           2             4    7     1      -0.3605071756E-02       4    7    1        -0.1952821751E+00      0.3948076123E+00
          0                 3           2             5    6     1      -0.2026268287E-02       5    8    1        -0.1115631737E+00      0.2698698981E+00
          0                 4           2             4    7     1       0.2308983235E-02       5    8    1         0.1277443908E+00      0.3125540832E+00
          0                 5           1             4    7     1      -0.9189842112E-04       5    8    1        -0.5225993443E-02      0.1278665773E-01

    ------------------------------------------------
       NWT REQUIRED            5 OUTER ITERATIONS 
       AND A TOTAL OF          9 INNER ITERATIONS.
    ------------------------------------------------

 NO OUTPUT CONTROL FOR STRESS PERIOD   47   TIME STEP   26
 
 SOLVING FOR HEAD 
                                                   Max.-Head-Change                         Max.-Flux-Residual
  Residual-Control   Outer-Iter.   Inner-Iter.     Column Row Layer    Maximum-Head-Change  Column Row Layer    Maximum-Flux-Residual          L2-NORM 
          0                 1           2             4    7     1       0.3654486011E-01       4    7    1         0.1925617569E+01      0.3892289337E+01
          0                 2           2             4    7     1      -0.3554844927E-02       4    7    1        -0.1925635622E+00      0.3892291918E+00
          0                 3           2             5    6     1      -0.2028943988E-02       5    8    1        -0.1117054289E+00      0.2702690786E+00
          0                 4           2             4    7     1       0.2309297913E-02       5    8    1         0.1277583362E+00      0.3125920644E+00
          0                 5           1             4    7     1      -0.9191094551E-04       5    8    1        -0.5226563959E-02      0.1278819613E-01

    ------------------------------------------------
       NWT REQUIRED            5 OUTER ITERATIONS 
       AND A TOTAL OF          9 INNER ITERATIONS.
    ------------------------------------------------

 NO OUTPUT CONTROL FOR STRESS PERIOD   47   TIME STEP   27
 
 SOLVING FOR HEAD 
                                                   Max.-Head-Change                         Max.-Flux-Residual
  Residual-Control   Outer-Iter.   Inner-Iter.     Column Row Layer    Maximum-Head-Change  Column Row Layer    Maximum-Flux-Residual          L2-NORM 
          0                 1           2             4    7     1       0.3603544302E-01       4    7    1         0.1898787495E+01      0.3837845018E+01
          0                 2           2             4    7     1      -0.3505292110E-02       4    7    1        -0.1898805237E+00      0.3837848105E+00
          0                 3           2             5    6     1      -0.2031531493E-02       5    8    1        -0.1118428901E+00      0.2706582470E+00
          0                 4           2             4    7     1       0.2309604330E-02       5    8    1         0.1277716851E+00      0.3126287195E+00
          0                 5           1             4    7     1      -0.9192331632E-04       5    8    1        -0.5227119995E-02      0.1278975029E-01

    ------------------------------------------------
       NWT REQUIRED            5 OUTER ITERATIONS 
       AND A TOTAL OF          9 INNER ITERATIONS.
    ------------------------------------------------

 NO OUTPUT CONTROL FOR STRESS PERIOD   47   TIME STEP   28
 
 SOLVING FOR HEAD 
                                                   Max.-Head-Change                         Max.-Flux-Residual
  Residual-Control   Outer-Iter.   Inner-Iter.     Column Row Layer    Maximum-Head-Change  Column Row Layer    Maximum-Flux-Residual          L2-NORM 
          0                 1           2             4    7     1       0.3553313575E-01       4    7    1         0.1872323917E+01      0.3784693205E+01
          0                 2           2             4    7     1      -0.3456430555E-02       4    7    1        -0.1872341172E+00      0.3784696352E+00
          0                 3           2             5    6     1      -0.2034037174E-02       5    8    1        -0.1119757528E+00      0.2710379471E+00
          0                 4           2             4    7     1       0.2309903300E-02       5    8    1         0.1277844961E+00      0.3126641240E+00
          0                 5           1             4    7     1      -0.9193503987E-04       5    8    1        -0.5227634152E-02      0.1279114496E-01

    ------------------------------------------------
       NWT REQUIRED            5 OUTER ITERATIONS 
       AND A TOTAL OF          9 INNER ITERATIONS.
    ------------------------------------------------

 NO OUTPUT CONTROL FOR STRESS PERIOD   47   TIME STEP   29
 
 SOLVING FOR HEAD 
                                                   Max.-Head-Change                         Max.-Flux-Residual
  Residual-Control   Outer-Iter.   Inner-Iter.     Column Row Layer    Maximum-Head-Change  Column Row Layer    Maximum-Flux-Residual          L2-NORM 
          0                 1           2             4    7     1       0.3503783528E-01       4    7    1         0.1846221680E+01      0.3733313636E+01
          0                 2           2             4    7     1      -0.3408250750E-02       4    7    1        -0.1846238553E+00      0.3733219042E+00
          0                 3           2             5    6     1      -0.2036463578E-02       5    8    1        -0.1121043087E+00      0.2714146498E+00
          0                 4           2             4    7     1       0.2310194363E-02       5    8    1         0.1277967646E+00      0.3126983380E+00
          0                 5           1             4    7     1      -0.9194644912E-04       5    8    1        -0.5228126108E-02      0.1279252510E-01

    ------------------------------------------------
       NWT REQUIRED            5 OUTER ITERATIONS 
       AND A TOTAL OF          9 INNER ITERATIONS.
    ------------------------------------------------

 NO OUTPUT CONTROL FOR STRESS PERIOD   47   TIME STEP   30



 STREAM LISTING     PERIOD     47   STEP       30

 LAYER ROW COL. STREAM  RCH.  FLOW INTO     FLOW TO   FLOW OUT OF   OVRLND.     DIRECT     STREAM       STREAM     STREAM     STREAM   STREAMBED  STREAMBED
                SEG.NO.  NO.  STRM. RCH.    AQUIFER    STRM. RCH.    RUNOFF     PRECIP       ET          HEAD       DEPTH      WIDTH   CONDCTNC.   GRADIENT

   1    1    1     1     1    7.9710E+00  1.2901E-01   7.8420E+00  0.000E+00  0.000E+00  0.000E+00  1.09388E+03  8.328E-01  7.480E+00  3.366E-02  1.278E+00
   1    2    2     1     2    7.8420E+00  1.9811E-01   7.6439E+00  0.000E+00  0.000E+00  0.000E+00  1.08889E+03  8.271E-01  7.395E+00  5.177E-02  1.276E+00
   1    3    3     1     3    7.6439E+00  1.6733E-01   7.4765E+00  0.000E+00  0.000E+00  0.000E+00  1.08324E+03  8.206E-01  7.300E+00  4.380E-02  1.274E+00
   1    3    4     1     4    7.4765E+00  1.5276E-01   7.3238E+00  0.000E+00  0.000E+00  0.000E+00  1.07822E+03  8.148E-01  7.215E+00  4.004E-02  1.272E+00
   1    4    5     2     1    5.3238E+00  2.7067E-01   5.0531E+00  0.000E+00  0.000E+00  0.000E+00  1.07240E+03  4.701E-01  1.200E+01  7.800E-02  1.157E+00
   1    5    6     2     2    5.0531E+00  2.0742E-01   4.8457E+00  0.000E+00  0.000E+00  0.000E+00  1.06697E+03  4.570E-01  1.200E+01  6.000E-02  1.152E+00
   1    6    6     2     3    4.8457E+00  2.0672E-01   4.6390E+00  0.000E+00  0.000E+00  0.000E+00  1.06224E+03  4.454E-01  1.200E+01  6.000E-02  1.148E+00
   1    7    6     2     4    4.6390E+00  2.0602E-01   4.4330E+00  0.000E+00  0.000E+00  0.000E+00  1.05751E+03  4.337E-01  1.200E+01  6.000E-02  1.145E+00
   1    8    6     2     5    4.4330E+00  2.0530E-01   4.2276E+00  0.000E+00  0.000E+00  0.000E+00  1.05278E+03  4.218E-01  1.200E+01  6.000E-02  1.141E+00
   1    3    5     3     1    2.0000E+00  2.8252E-01   1.7175E+00  0.000E+00  0.000E+00  0.000E+00  1.07555E+03  1.909E+00  9.636E+00  7.227E-02  1.955E+00
   1    3    6     3     2    1.7175E+00  2.4905E-01   1.4684E+00  0.000E+00  0.000E+00  0.000E+00  1.07264E+03  1.727E+00  8.909E+00  6.682E-02  1.864E+00
   1    3    7     3     3    1.4684E+00  1.9718E-01   1.2712E+00  0.000E+00  0.000E+00  0.000E+00  1.06987E+03  1.555E+00  8.218E+00  5.547E-02  1.777E+00
   1    4    8     3     4    1.2712E+00  2.2567E-01   1.0456E+00  0.000E+00  0.000E+00  0.000E+00  1.06682E+03  1.364E+00  7.455E+00  6.709E-02  1.682E+00
   1    5    8     3     5    1.0456E+00  1.5790E-01   8.8768E-01  0.000E+00  0.000E+00  0.000E+00  1.06362E+03  1.164E+00  6.655E+00  4.991E-02  1.582E+00
   1    6    8     3     6    8.8768E-01  5.5980E-02   8.3170E-01  0.000E+00  0.000E+00  0.000E+00  1.06158E+03  1.036E+00  6.145E+00  1.844E-02  1.518E+00
   1    5   10     4     1    1.0000E+01  9.0919E-02   9.9091E+00  0.000E+00  0.000E+00  0.000E+00  1.07836E+03  6.368E-01  1.000E+01  2.500E-02  1.212E+00
   1    5    9     4     2    9.9091E+00  1.8158E-01   9.7275E+00  0.000E+00  0.000E+00  0.000E+00  1.07154E+03  6.315E-01  1.000E+01  5.000E-02  1.211E+00
   1    6    8     4     3    9.7275E+00  1.2689E-01   9.6006E+00  0.000E+00  0.000E+00  0.000E+00  1.06381E+03  6.256E-01  1.000E+01  3.500E-02  1.209E+00
   1    6    8     5     1    1.0432E+01  2.2686E-01   1.0205E+01  0.000E+00  0.000E+00  0.000E+00  1.05868E+03  6.790E-01  1.542E+01  6.166E-02  1.226E+00
   1    7    7     5     2    1.0205E+01  2.7894E-01   9.9265E+00  0.000E+00  0.000E+00  0.000E+00  1.05417E+03  6.732E-01  1.519E+01  7.594E-02  1.224E+00
   1    8    7     5     3    9.9265E+00  1.9221E-01   9.7343E+00  0.000E+00  0.000E+00  0.000E+00  1.04992E+03  6.676E-01  1.497E+01  5.241E-02  1.223E+00
   1    8    6     5     4    9.7343E+00  1.3577E-01   9.5985E+00  0.000E+00  0.000E+00  0.000E+00  1.04691E+03  6.637E-01  1.482E+01  3.706E-02  1.221E+00
   1    9    6     6     1    1.3106E+01  2.2947E-01   1.2877E+01  0.000E+00  0.000E+00  0.000E+00  1.04355E+03  8.245E-01  1.200E+01  6.000E-02  1.275E+00
   1   10    7     6     2    1.2877E+01  2.2894E-01   1.2648E+01  0.000E+00  0.000E+00  0.000E+00  1.03900E+03  8.157E-01  1.200E+01  6.000E-02  1.272E+00
   1   11    7     6     3    1.2648E+01  2.2841E-01   1.2420E+01  0.000E+00  0.000E+00  0.000E+00  1.03444E+03  8.069E-01  1.200E+01  6.000E-02  1.269E+00
   1   12    7     6     4    1.2420E+01  2.2788E-01   1.2192E+01  0.000E+00  0.000E+00  0.000E+00  1.02989E+03  7.981E-01  1.200E+01  6.000E-02  1.266E+00
   1   13    7     6     5    1.2192E+01  2.9705E-03   1.2189E+01  0.000E+00  0.000E+00  0.000E+00  1.02670E+03  7.936E-01  1.200E+01  2.400E-02  4.126E-02
   1   14    9     7     1    1.5000E+02  1.3939E+00   1.4861E+02  0.000E+00  0.000E+00  0.000E+00  1.03987E+03  2.288E+00  5.529E+01  5.593E-01  8.307E-01
   1   13    8     7     2    1.4861E+02  2.0020E+00   1.4660E+02  0.000E+00  0.000E+00  0.000E+00  1.03478E+03  2.279E+00  5.525E+01  6.147E-01  1.086E+00
   1   13    7     7     3    1.4660E+02  1.7359E+00   1.4487E+02  0.000E+00  0.000E+00  0.000E+00  1.02969E+03  2.269E+00  5.521E+01  5.584E-01  1.036E+00
   1   13    6     8     1    1.5706E+02  1.1061E+00   1.5595E+02  0.000E+00  0.000E+00  0.000E+00  1.02474E+03  2.862E+00  4.150E+01  4.229E-01  8.718E-01
   1   13    5     8     2    1.5595E+02  3.5385E-01   1.5560E+02  0.000E+00  0.000E+00  0.000E+00  1.01848E+03  2.857E+00  4.143E+01  4.222E-01  2.794E-01
   1   13    4     8     3    1.5560E+02 -1.8194E+00   1.5742E+02  0.000E+00  0.000E+00  0.000E+00  1.01224E+03  2.862E+00  4.150E+01  4.229E+00 -1.434E-01
   1   13    3     8     4    1.5742E+02 -3.3338E+00   1.6075E+02  0.000E+00  0.000E+00  0.000E+00  1.00600E+03  2.880E+00  4.175E+01  4.255E+00 -2.612E-01
   1   13    2     8     5    1.6075E+02 -2.4934E+00   1.6324E+02  0.000E+00  0.000E+00  0.000E+00  9.99774E+02  2.899E+00  4.204E+01  4.284E+00 -1.940E-01
   1   13    1     8     6    1.6324E+02 -1.9507E+00   1.6519E+02  0.000E+00  0.000E+00  0.000E+00  9.94789E+02  2.914E+00  4.226E+01  2.584E+00 -2.517E-01
   1    8    6     9     1    7.1969E-01  0.0000E+00   7.1969E-01  0.000E+00  0.000E+00  0.000E+00  1.07922E+03  4.673E-01  4.000E+00  0.000E+00  1.156E+00
   1    8    5     9     2    7.1969E-01  0.0000E+00   7.1969E-01  0.000E+00  0.000E+00  0.000E+00  1.07872E+03  4.673E-01  4.000E+00  0.000E+00  1.156E+00





UNSATURATED ZONE PACKAGE VOLUMETRIC BUDGET FOR  TIME STEP    30 STRESS PERIOD   47
  ------------------------------------------------------------------------------



     CUMULATIVE VOLUMES      L**3       RATES FOR THIS TIME STEP      L**3/T
     ------------------                 ------------------------

           IN:                                      IN:
           ---                                      ---
        INFILTRATION =  1708323893.7684          INFILTRATION =           1.5672

          OUT:                                     OUT:
          ----                                     ----
              UZF ET =  1701487927.0410                UZF ET =           1.5675
        UZF RECHARGE =       73224.0000          UZF RECHARGE =       0.0000E+00

            IN - OUT =     6762742.7274              IN - OUT =      -2.9564E-04

          STORAGE:                                 STORAGE:
          --------                                 --------
      STORAGE CHANGE =     6762741.8430        STORAGE CHANGE =      -2.9562E-04

 PERCENT DISCREPANCY IS DIFFERENCE BETWEEN IN-OUT MINUS CHANGE IN STORAGE
 DIVIDED BY THE AVERAGE OF IN AND OUT TIMES 100

 PERCENT DISCREPANCY =           0.00     PERCENT DISCREPANCY =           0.00






1
  VOLUMETRIC BUDGET FOR AGRICULTURAL FIELDS AT  END OF TIME STEP   30, STRESS PERIOD  47
  ------------------------------------------------------------------------------

     CUMULATIVE VOLUMES      L**3       RATES FOR THIS TIME STEP      L**3/T
     ------------------                 ------------------------

           IN:                                      IN:
           ---                                      ---
           AG WELLS      =   855545344.0000             AG WELLS      =           0.0000
      DIVERSION SEGMENTS =   750254336.0000        DIVERSION SEGMENTS =           0.7197
           GW IRRIGATION =           0.0000             GW IRRIGATION =           0.0000
           SW IRRIGATION =           0.0000             SW IRRIGATION =           0.0000
        SYSTEM LOSSES GW =           0.0000          SYSTEM LOSSES GW =           0.0000
        SYSTEM LOSSES SW =           0.0000          SYSTEM LOSSES SW =           0.0000

                TOTAL IN =  1605799680.0000                  TOTAL IN =           0.7197

          OUT:                                     OUT:
          ----                                     ----
           AG WELLS      =           0.0000             AG WELLS      =           0.0000
      DIVERSION SEGMENTS =           0.0000        DIVERSION SEGMENTS =           0.0000
           GW IRRIGATION =   855545344.0000             GW IRRIGATION =           0.0000
           SW IRRIGATION =   750267456.0000             SW IRRIGATION =           0.7197
        SYSTEM LOSSES GW =           0.0000          SYSTEM LOSSES GW =           0.0000
        SYSTEM LOSSES SW =           0.0000          SYSTEM LOSSES SW =           0.0000

               TOTAL OUT =  1605812736.0000                 TOTAL OUT =           0.7197

                IN - OUT =      -13056.0000                  IN - OUT =      -1.4365E-05

     PERCENT DISCREPANCY =          -0.00         PERCENT DISCREPANCY =          -0.00



1
  VOLUMETRIC BUDGET FOR ENTIRE MODEL AT END OF TIME STEP   30, STRESS PERIOD  47
  ------------------------------------------------------------------------------

     CUMULATIVE VOLUMES      L**3       RATES FOR THIS TIME STEP      L**3/T
     ------------------                 ------------------------

           IN:                                      IN:
           ---                                      ---
             STORAGE     =  1202277504.0000               STORAGE     =           7.8536
       CONSTANT HEAD     =           0.0000         CONSTANT HEAD     =           0.0000
     HEAD DEP BOUNDS     =    34933372.0000       HEAD DEP BOUNDS     =           0.2897
      STREAM LEAKAGE     =  1437186176.0000        STREAM LEAKAGE     =          11.6543
        UZF RECHARGE     =       73223.9531          UZF RECHARGE     =           0.0000
               GW ET     =           0.0000                 GW ET     =           0.0000
     SURFACE LEAKAGE     =           0.0000       SURFACE LEAKAGE     =           0.0000
           AG WELLS      =           0.0000             AG WELLS      =           0.0000

                TOTAL IN =  2674470400.0000                  TOTAL IN =          19.7976

          OUT:                                     OUT:
          ----                                     ----
             STORAGE     =   572556352.0000               STORAGE     =           9.9134
       CONSTANT HEAD     =           0.0000         CONSTANT HEAD     =           0.0000
     HEAD DEP BOUNDS     =    34840148.0000       HEAD DEP BOUNDS     =           0.2867
      STREAM LEAKAGE     =  1211545344.0000        STREAM LEAKAGE     =           9.5972
        UZF RECHARGE     =           0.0000          UZF RECHARGE     =           0.0000
               GW ET     =           0.0000                 GW ET     =           0.0000
     SURFACE LEAKAGE     =           0.0000       SURFACE LEAKAGE     =           0.0000
           AG WELLS      =   855545344.0000             AG WELLS      =           0.0000

               TOTAL OUT =  2674487296.0000                 TOTAL OUT =          19.7972

                IN - OUT =      -16896.0000                  IN - OUT =       4.0245E-04

     PERCENT DISCREPANCY =          -0.00         PERCENT DISCREPANCY =           0.00






         TIME SUMMARY AT END OF TIME STEP   30 IN STRESS PERIOD   47
                    SECONDS     MINUTES      HOURS       DAYS        YEARS
                    -----------------------------------------------------------
   TIME STEP LENGTH  87667.      1461.1      24.352      1.0147     2.77799E-03
 STRESS PERIOD TIME 2.63000E+06  43833.      730.56      30.440     8.33397E-02
         TOTAL TIME 1.21065E+08 2.01775E+06  33629.      1401.2      3.8363    
1
1
                            STRESS PERIOD NO.   48, LENGTH =   2630000.    
                            -----------------------------------------------

                              NUMBER OF TIME STEPS =    30

                               MULTIPLIER FOR DELT =     1.000

                            INITIAL TIME STEP SIZE =   87666.66    

 REUSING NON-PARAMETER GHB CELLS FROM LAST STRESS PERIOD

      2 GHB CELLS

 REUSING STREAM SEGMENT DATA FROM LAST STRESS PERIOD



            AREAL INFILTRATION RATE
 READING ON UNIT   19 WITH FORMAT: (FREE)              

            1           2           3           4           5           6           7           8           9          10
 ........................................................................................................................
   1   1.0000E-10  2.0000E-10   0.000       0.000       0.000       0.000       0.000       0.000       0.000       0.000    
   2   2.0000E-10  1.0000E-10  2.0000E-10   0.000       0.000      8.0000E-10  8.0000E-10  5.0000E-10   0.000       0.000    
   3    0.000      5.0000E-10  1.0000E-10  1.0000E-10  8.0000E-10  8.0000E-10  5.0000E-10  5.0000E-10   0.000       0.000    
   4   8.0000E-10  5.0000E-10  1.0000E-10  1.0000E-10  1.0000E-10  1.0000E-10  1.0000E-10  1.0000E-10  2.0000E-10   0.000    
   5   8.0000E-10  5.0000E-10  1.0000E-10  1.0000E-10  1.0000E-10  1.0000E-10  1.0000E-10  1.0000E-10  1.0000E-10  1.0000E-10
   6   8.0000E-10  5.0000E-10  5.0000E-10  2.0000E-10  2.0000E-10  1.0000E-10  1.0000E-10  1.0000E-10  1.0000E-10  5.0000E-10
   7   8.0000E-10  5.0000E-10  5.0000E-10  2.0000E-10  2.0000E-10  1.0000E-10  1.0000E-10  2.0000E-10  2.0000E-10   0.000    
   8    0.000      5.0000E-10  5.0000E-10  2.0000E-10  2.0000E-10  1.0000E-10  1.0000E-10  2.0000E-10  5.0000E-10   0.000    
   9    0.000      5.0000E-10  5.0000E-10  2.0000E-10  2.0000E-10  1.0000E-10  1.0000E-10  2.0000E-10  5.0000E-10   0.000    
  10    0.000      5.0000E-10  5.0000E-10  2.0000E-10  2.0000E-10  1.0000E-10  1.0000E-10  2.0000E-10  5.0000E-10  8.0000E-10
  11    0.000      1.0000E-10  1.0000E-10  1.0000E-10  1.0000E-10  1.0000E-10  1.0000E-10  2.0000E-10  5.0000E-10   0.000    
  12   1.0000E-10  1.0000E-10  1.0000E-10  1.0000E-10  1.0000E-10  1.0000E-10  1.0000E-10  1.0000E-10  2.0000E-10   0.000    
  13   1.0000E-10  1.0000E-10  2.0000E-10  2.0000E-10  2.0000E-10  2.0000E-10  2.0000E-10  1.0000E-10  1.0000E-10   0.000    
  14    0.000      2.0000E-10  5.0000E-10  5.0000E-10  5.0000E-10  5.0000E-10  5.0000E-10  2.0000E-10  1.0000E-10   0.000    
  15    0.000       0.000      8.0000E-10  8.0000E-10  8.0000E-10  8.0000E-10   0.000       0.000       0.000       0.000    

                  ET RATE =  5.000000E-10

 USING ET EXTINCTION DEPTH FROM PREVIOUS STRESS PERIOD. CURRENT PERIOD IS:      48

 USING EXTINCTION WATER CONTENT FROM PREVIOUS STRESS PERIOD. CURRENT PERIOD IS:      48

 USING AIR ENTRY PRESSURE FROM PREVIOUS STRESS PERIOD. CURRENT PERIOD IS:      48

 USING ROOT PRESSURE HEAD FROM PREVIOUS STRESS PERIOD. CURRENT PERIOD IS:      48

 USING ROOT ACTIVITY FROM PREVIOUS STRESS PERIOD. CURRENT PERIOD IS:      48

 PROCESSING AG STRESS PERIOD DATA

 READING AG STRESS PERIOD DATA

 READING IRRIGATION SEGMENT

 READING IRRIGATION WELL

 READING SUPPLEMENTAL WELL

 END PROCESSING AG STRESS PERIOD DATA OPTIONS
 
 SOLVING FOR HEAD 
                                                   Max.-Head-Change                         Max.-Flux-Residual
  Residual-Control   Outer-Iter.   Inner-Iter.     Column Row Layer    Maximum-Head-Change  Column Row Layer    Maximum-Flux-Residual          L2-NORM 
          0                 1           2             4    7     1       0.3454969272E-01       4    7    1         0.1820490015E+01      0.3682805503E+01
          0                 2           2             4    7     1      -0.3360767250E-02       4    7    1        -0.1820506508E+00      0.3682813587E+00
          0                 3           2             4    7     1       0.2288555533E-03       4    7    1         0.1274353547E-01      0.2577968195E-01
          0                 4           1             4    7     1      -0.9106377900E-05       4    7    1        -0.5212113947E-03      0.1054387080E-02

    ------------------------------------------------
       NWT REQUIRED            4 OUTER ITERATIONS 
       AND A TOTAL OF          7 INNER ITERATIONS.
    ------------------------------------------------

 NO OUTPUT CONTROL FOR STRESS PERIOD   48   TIME STEP    1
 
 SOLVING FOR HEAD 
                                                   Max.-Head-Change                         Max.-Flux-Residual
  Residual-Control   Outer-Iter.   Inner-Iter.     Column Row Layer    Maximum-Head-Change  Column Row Layer    Maximum-Flux-Residual          L2-NORM 
          0                 1           2             4    7     1       0.3406870670E-01       4    7    1         0.1795129125E+01      0.3633260247E+01
          0                 2           2             4    7     1      -0.3313979875E-02       4    7    1        -0.1795145244E+00      0.3633268575E+00
          0                 3           2             4    7     1       0.2256695117E-03       4    7    1         0.1256600688E-01      0.2543286520E-01
          0                 4           1             4    7     1      -0.8979602035E-05       4    7    1        -0.5139504613E-03      0.1040202543E-02

    ------------------------------------------------
       NWT REQUIRED            4 OUTER ITERATIONS 
       AND A TOTAL OF          7 INNER ITERATIONS.
    ------------------------------------------------

 NO OUTPUT CONTROL FOR STRESS PERIOD   48   TIME STEP    2
 
 SOLVING FOR HEAD 
                                                   Max.-Head-Change                         Max.-Flux-Residual
  Residual-Control   Outer-Iter.   Inner-Iter.     Column Row Layer    Maximum-Head-Change  Column Row Layer    Maximum-Flux-Residual          L2-NORM 
          0                 1           2             4    7     1       0.3359474345E-01       4    7    1         0.1770132340E+01      0.3584840095E+01
          0                 2           2             4    7     1      -0.3267875630E-02       4    7    1        -0.1770148086E+00      0.3584848587E+00
          0                 3           2             4    7     1       0.2225299892E-03       4    7    1         0.1239102706E-01      0.2509393324E-01
          0                 4           1             4    7     1      -0.8854677651E-05       4    7    1        -0.5067937852E-03      0.1026346772E-02

    ------------------------------------------------
       NWT REQUIRED            4 OUTER ITERATIONS 
       AND A TOTAL OF          7 INNER ITERATIONS.
    ------------------------------------------------

 NO OUTPUT CONTROL FOR STRESS PERIOD   48   TIME STEP    3
 
 SOLVING FOR HEAD 
                                                   Max.-Head-Change                         Max.-Flux-Residual
  Residual-Control   Outer-Iter.   Inner-Iter.     Column Row Layer    Maximum-Head-Change  Column Row Layer    Maximum-Flux-Residual          L2-NORM 
          0                 1           2             4    7     1       0.3312806112E-01       4    7    1         0.1745514245E+01      0.3537514034E+01
          0                 2           2             4    7     1      -0.3222479627E-02       4    7    1        -0.1745529624E+00      0.3537522660E+00
          0                 3           2             4    7     1       0.2194386946E-03       4    7    1         0.1221869809E-01      0.2476265680E-01
          0                 4           1             4    7     1      -0.8731672099E-05       4    7    1        -0.4997455126E-03      0.1012795193E-02

    ------------------------------------------------
       NWT REQUIRED            4 OUTER ITERATIONS 
       AND A TOTAL OF          7 INNER ITERATIONS.
    ------------------------------------------------

 NO OUTPUT CONTROL FOR STRESS PERIOD   48   TIME STEP    4
 
 SOLVING FOR HEAD 
                                                   Max.-Head-Change                         Max.-Flux-Residual
  Residual-Control   Outer-Iter.   Inner-Iter.     Column Row Layer    Maximum-Head-Change  Column Row Layer    Maximum-Flux-Residual          L2-NORM 
          0                 1           2             4    7     1       0.3266835581E-01       4    7    1         0.1721259072E+01      0.3491228392E+01
          0                 2           2             4    7     1      -0.3177762303E-02       4    7    1        -0.1721274088E+00      0.3491237086E+00
          0                 3           2             4    7     1       0.2163936159E-03       4    7    1         0.1204890962E-01      0.2443865596E-01
          0                 4           1             4    7     1      -0.8610505366E-05       4    7    1        -0.4928011488E-03      0.9995412706E-03

    ------------------------------------------------
       NWT REQUIRED            4 OUTER ITERATIONS 
       AND A TOTAL OF          7 INNER ITERATIONS.
    ------------------------------------------------

 NO OUTPUT CONTROL FOR STRESS PERIOD   48   TIME STEP    5
 
 SOLVING FOR HEAD 
                                                   Max.-Head-Change                         Max.-Flux-Residual
  Residual-Control   Outer-Iter.   Inner-Iter.     Column Row Layer    Maximum-Head-Change  Column Row Layer    Maximum-Flux-Residual          L2-NORM 
          0                 1           2             4    7     1       0.3221587092E-01       4    7    1         0.1697380219E+01      0.3445977750E+01
          0                 2           2             4    7     1      -0.3133747339E-02       4    7    1        -0.1697394879E+00      0.3445986425E+00
          0                 3           2             4    7     1       0.2133963653E-03       4    7    1         0.1188175542E-01      0.2412190518E-01
          0                 4           1             4    7     1      -0.8491242152E-05       4    7    1        -0.4859645403E-03      0.9865904317E-03

    ------------------------------------------------
       NWT REQUIRED            4 OUTER ITERATIONS 
       AND A TOTAL OF          7 INNER ITERATIONS.
    ------------------------------------------------

 NO OUTPUT CONTROL FOR STRESS PERIOD   48   TIME STEP    6
 
 SOLVING FOR HEAD 
                                                   Max.-Head-Change                         Max.-Flux-Residual
  Residual-Control   Outer-Iter.   Inner-Iter.     Column Row Layer    Maximum-Head-Change  Column Row Layer    Maximum-Flux-Residual          L2-NORM 
          0                 1           2             4    7     1       0.3177028753E-01       4    7    1         0.1673861150E+01      0.3401698163E+01
          0                 2           2             4    7     1      -0.3090403709E-02       4    7    1        -0.1673875457E+00      0.3401706784E+00
          0                 3           2             4    7     1       0.2104448296E-03       4    7    1         0.1171711972E-01      0.2381194618E-01
          0                 4           1             4    7     1      -0.8373797723E-05       4    7    1        -0.4792309212E-03      0.9739100193E-03

    ------------------------------------------------
       NWT REQUIRED            4 OUTER ITERATIONS 
       AND A TOTAL OF          7 INNER ITERATIONS.
    ------------------------------------------------

 NO OUTPUT CONTROL FOR STRESS PERIOD   48   TIME STEP    7
 
 SOLVING FOR HEAD 
                                                   Max.-Head-Change                         Max.-Flux-Residual
  Residual-Control   Outer-Iter.   Inner-Iter.     Column Row Layer    Maximum-Head-Change  Column Row Layer    Maximum-Flux-Residual          L2-NORM 
          0                 1           2             4    7     1       0.3133196559E-01       4    7    1         0.1650721778E+01      0.3358385083E+01
          0                 2           2             4    7     1      -0.3047766430E-02       4    7    1        -0.1650735740E+00      0.3358393630E+00
          0                 3           2             4    7     1       0.2075413940E-03       4    7    1         0.1155514196E-01      0.2350875936E-01
          0                 4           1             4    7     1      -0.8258267177E-05       4    7    1        -0.4726060217E-03      0.9615102205E-03

    ------------------------------------------------
       NWT REQUIRED            4 OUTER ITERATIONS 
       AND A TOTAL OF          7 INNER ITERATIONS.
    ------------------------------------------------

 NO OUTPUT CONTROL FOR STRESS PERIOD   48   TIME STEP    8
 
 SOLVING FOR HEAD 
                                                   Max.-Head-Change                         Max.-Flux-Residual
  Residual-Control   Outer-Iter.   Inner-Iter.     Column Row Layer    Maximum-Head-Change  Column Row Layer    Maximum-Flux-Residual          L2-NORM 
          0                 1           2             4    7     1       0.3090043669E-01       4    7    1         0.1627937026E+01      0.3315999396E+01
          0                 2           2             4    7     1      -0.3005789936E-02       4    7    1        -0.1627950648E+00      0.3316007821E+00
          0                 3           2             4    7     1       0.2046829554E-03       4    7    1         0.1139564658E-01      0.2321211904E-01
          0                 4           1             4    7     1      -0.8144526979E-05       4    7    1        -0.4660826407E-03      0.9493771609E-03

    ------------------------------------------------
       NWT REQUIRED            4 OUTER ITERATIONS 
       AND A TOTAL OF          7 INNER ITERATIONS.
    ------------------------------------------------

 NO OUTPUT CONTROL FOR STRESS PERIOD   48   TIME STEP    9
 
 SOLVING FOR HEAD 
                                                   Max.-Head-Change                         Max.-Flux-Residual
  Residual-Control   Outer-Iter.   Inner-Iter.     Column Row Layer    Maximum-Head-Change  Column Row Layer    Maximum-Flux-Residual          L2-NORM 
          0                 1           2             4    7     1       0.3047604442E-01       4    7    1         0.1605526351E+01      0.3274507782E+01
          0                 2           2             4    7     1      -0.2964507651E-02       4    7    1        -0.1605539639E+00      0.3274516660E+00
          0                 3           2             4    7     1       0.2018717895E-03       4    7    1         0.1123876975E-01      0.2292161868E-01
          0                 4           1             4    7     1      -0.8032668312E-05       4    7    1        -0.4596663848E-03      0.9374965610E-03

    ------------------------------------------------
       NWT REQUIRED            4 OUTER ITERATIONS 
       AND A TOTAL OF          7 INNER ITERATIONS.
    ------------------------------------------------

 NO OUTPUT CONTROL FOR STRESS PERIOD   48   TIME STEP   10
 
 SOLVING FOR HEAD 
                                                   Max.-Head-Change                         Max.-Flux-Residual
  Residual-Control   Outer-Iter.   Inner-Iter.     Column Row Layer    Maximum-Head-Change  Column Row Layer    Maximum-Flux-Residual          L2-NORM 
          0                 1           2             4    7     1       0.3005831203E-01       4    7    1         0.1583463821E+01      0.3233887920E+01
          0                 2           2             4    7     1      -0.2923873199E-02       4    7    1        -0.1583476782E+00      0.3233895990E+00
          0                 3           2             4    7     1       0.1991047388E-03       4    7    1         0.1108432999E-01      0.2263727214E-01
          0                 4           1             4    7     1      -0.7922564649E-05       4    7    1        -0.4533497884E-03      0.9258651626E-03

    ------------------------------------------------
       NWT REQUIRED            4 OUTER ITERATIONS 
       AND A TOTAL OF          7 INNER ITERATIONS.
    ------------------------------------------------

 NO OUTPUT CONTROL FOR STRESS PERIOD   48   TIME STEP   11
 
 SOLVING FOR HEAD 
                                                   Max.-Head-Change                         Max.-Flux-Residual
  Residual-Control   Outer-Iter.   Inner-Iter.     Column Row Layer    Maximum-Head-Change  Column Row Layer    Maximum-Flux-Residual          L2-NORM 
          0                 1           2             4    7     1       0.2964757484E-01       4    7    1         0.1561768467E+01      0.3194115229E+01
          0                 2           2             4    7     1      -0.2883919200E-02       4    7    1        -0.1561781108E+00      0.3194123175E+00
          0                 3           2             4    7     1       0.1963840238E-03       4    7    1         0.1093246050E-01      0.2235886266E-01
          0                 4           1             4    7     1      -0.7814304871E-05       4    7    1        -0.4471383061E-03      0.9144792758E-03

    ------------------------------------------------
       NWT REQUIRED            4 OUTER ITERATIONS 
       AND A TOTAL OF          7 INNER ITERATIONS.
    ------------------------------------------------

 NO OUTPUT CONTROL FOR STRESS PERIOD   48   TIME STEP   12
 
 SOLVING FOR HEAD 
                                                   Max.-Head-Change                         Max.-Flux-Residual
  Residual-Control   Outer-Iter.   Inner-Iter.     Column Row Layer    Maximum-Head-Change  Column Row Layer    Maximum-Flux-Residual          L2-NORM 
          0                 1           2             4    7     1       0.2924361423E-01       4    7    1         0.1540428509E+01      0.3155165778E+01
          0                 2           2             4    7     1      -0.2844624387E-02       4    7    1        -0.1540440835E+00      0.3155173558E+00
          0                 3           2             4    7     1       0.1937081979E-03       4    7    1         0.1078307885E-01      0.2208621650E-01
          0                 4           1             4    7     1      -0.7707831527E-05       4    7    1        -0.4410285976E-03      0.9033274397E-03

    ------------------------------------------------
       NWT REQUIRED            4 OUTER ITERATIONS 
       AND A TOTAL OF          7 INNER ITERATIONS.
    ------------------------------------------------

 NO OUTPUT CONTROL FOR STRESS PERIOD   48   TIME STEP   13
 
 SOLVING FOR HEAD 
                                                   Max.-Head-Change                         Max.-Flux-Residual
  Residual-Control   Outer-Iter.   Inner-Iter.     Column Row Layer    Maximum-Head-Change  Column Row Layer    Maximum-Flux-Residual          L2-NORM 
          0                 1           2             4    7     1       0.2884621494E-01       4    7    1         0.1519432609E+01      0.3117015556E+01
          0                 2           2             4    7     1      -0.2805967821E-02       4    7    1        -0.1519444627E+00      0.3117023075E+00
          0                 3           2             4    7     1       0.1910758332E-03       4    7    1         0.1063610563E-01      0.2181916249E-01
          0                 4           1             4    7     1      -0.7603087055E-05       4    7    1        -0.4350173660E-03      0.8924054169E-03

    ------------------------------------------------
       NWT REQUIRED            4 OUTER ITERATIONS 
       AND A TOTAL OF          7 INNER ITERATIONS.
    ------------------------------------------------

 NO OUTPUT CONTROL FOR STRESS PERIOD   48   TIME STEP   14
 
 SOLVING FOR HEAD 
                                                   Max.-Head-Change                         Max.-Flux-Residual
  Residual-Control   Outer-Iter.   Inner-Iter.     Column Row Layer    Maximum-Head-Change  Column Row Layer    Maximum-Flux-Residual          L2-NORM 
          0                 1           2             4    7     1       0.2845555893E-01       4    7    1         0.1498791487E+01      0.3079631436E+01
          0                 2           2             4    7     1      -0.2767967202E-02       4    7    1        -0.1498803204E+00      0.3079638611E+00
          0                 3           2             4    7     1       0.1884881364E-03       4    7    1         0.1049161588E-01      0.2155745761E-01
          0                 4           1             4    7     1      -0.7500120383E-05       4    7    1        -0.4291077462E-03      0.8817019725E-03

    ------------------------------------------------
       NWT REQUIRED            4 OUTER ITERATIONS 
       AND A TOTAL OF          7 INNER ITERATIONS.
    ------------------------------------------------

 NO OUTPUT CONTROL FOR STRESS PERIOD   48   TIME STEP   15
 
 SOLVING FOR HEAD 
                                                   Max.-Head-Change                         Max.-Flux-Residual
  Residual-Control   Outer-Iter.   Inner-Iter.     Column Row Layer    Maximum-Head-Change  Column Row Layer    Maximum-Flux-Residual          L2-NORM 
          0                 1           2             4    7     1       0.2807142173E-01       4    7    1         0.1478492697E+01      0.3043006787E+01
          0                 2           2             4    7     1      -0.2730600695E-02       4    7    1        -0.1478504120E+00      0.3043013838E+00
          0                 3           2             4    7     1       0.1859436198E-03       4    7    1         0.1034952250E-01      0.2130109706E-01
          0                 4           1             4    7     1      -0.7398871415E-05       4    7    1        -0.4232961051E-03      0.8712186654E-03

    ------------------------------------------------
       NWT REQUIRED            4 OUTER ITERATIONS 
       AND A TOTAL OF          7 INNER ITERATIONS.
    ------------------------------------------------

 NO OUTPUT CONTROL FOR STRESS PERIOD   48   TIME STEP   16
 
 SOLVING FOR HEAD 
                                                   Max.-Head-Change                         Max.-Flux-Residual
  Residual-Control   Outer-Iter.   Inner-Iter.     Column Row Layer    Maximum-Head-Change  Column Row Layer    Maximum-Flux-Residual          L2-NORM 
          0                 1           2             4    7     1       0.2769371144E-01       4    7    1         0.1458531895E+01      0.3007114141E+01
          0                 2           2             4    7     1      -0.2693859360E-02       4    7    1        -0.1458543029E+00      0.3007121000E+00
          0                 3           2             4    7     1       0.1834416753E-03       4    7    1         0.1020979508E-01      0.2104983877E-01
          0                 4           1             4    7     1      -0.7299316895E-05       4    7    1        -0.4175812517E-03      0.8609907789E-03

    ------------------------------------------------
       NWT REQUIRED            4 OUTER ITERATIONS 
       AND A TOTAL OF          7 INNER ITERATIONS.
    ------------------------------------------------

 NO OUTPUT CONTROL FOR STRESS PERIOD   48   TIME STEP   17
 
 SOLVING FOR HEAD 
                                                   Max.-Head-Change                         Max.-Flux-Residual
  Residual-Control   Outer-Iter.   Inner-Iter.     Column Row Layer    Maximum-Head-Change  Column Row Layer    Maximum-Flux-Residual          L2-NORM 
          0                 1           2             4    7     1       0.2732233444E-01       4    7    1         0.1438904315E+01      0.2971928062E+01
          0                 2           2             4    7     1      -0.2657734092E-02       4    7    1        -0.1438915168E+00      0.2971934565E+00
          0                 3           2             4    7     1       0.1809816826E-03       4    7    1         0.1007240027E-01      0.2080354639E-01
          0                 4           1             4    7     1      -0.7201431149E-05       4    7    1        -0.4119617936E-03      0.8508668512E-03

    ------------------------------------------------
       NWT REQUIRED            4 OUTER ITERATIONS 
       AND A TOTAL OF          7 INNER ITERATIONS.
    ------------------------------------------------

 NO OUTPUT CONTROL FOR STRESS PERIOD   48   TIME STEP   18
 
 SOLVING FOR HEAD 
                                                   Max.-Head-Change                         Max.-Flux-Residual
  Residual-Control   Outer-Iter.   Inner-Iter.     Column Row Layer    Maximum-Head-Change  Column Row Layer    Maximum-Flux-Residual          L2-NORM 
          0                 1           2             4    7     1       0.2695732863E-01       4    7    1         0.1419612399E+01      0.2937433573E+01
          0                 2           2             4    7     1      -0.2622228577E-02       4    7    1        -0.1419622978E+00      0.2937439943E+00
          0                 3           2             4    7     1       0.1785638926E-03       4    7    1         0.9937355141E-02      0.2056207572E-01
          0                 4           1             4    7     1      -0.7105225115E-05       4    7    1        -0.4064384373E-03      0.8409879191E-03

    ------------------------------------------------
       NWT REQUIRED            4 OUTER ITERATIONS 
       AND A TOTAL OF          7 INNER ITERATIONS.
    ------------------------------------------------

 NO OUTPUT CONTROL FOR STRESS PERIOD   48   TIME STEP   19
 
 SOLVING FOR HEAD 
                                                   Max.-Head-Change                         Max.-Flux-Residual
  Residual-Control   Outer-Iter.   Inner-Iter.     Column Row Layer    Maximum-Head-Change  Column Row Layer    Maximum-Flux-Residual          L2-NORM 
          0                 1           2             4    7     1       0.2659859637E-01       4    7    1         0.1400650818E+01      0.2903617662E+01
          0                 2           2             4    7     1      -0.2587333315E-02       4    7    1        -0.1400661128E+00      0.2903623808E+00
          0                 3           2             4    7     1       0.1761876583E-03       4    7    1         0.9804622378E-02      0.2032536636E-01
          0                 4           1             4    7     1      -0.7010672544E-05       4    7    1        -0.4010096604E-03      0.8313086412E-03

    ------------------------------------------------
       NWT REQUIRED            4 OUTER ITERATIONS 
       AND A TOTAL OF          7 INNER ITERATIONS.
    ------------------------------------------------

 NO OUTPUT CONTROL FOR STRESS PERIOD   48   TIME STEP   20
 
 SOLVING FOR HEAD 
                                                   Max.-Head-Change                         Max.-Flux-Residual
  Residual-Control   Outer-Iter.   Inner-Iter.     Column Row Layer    Maximum-Head-Change  Column Row Layer    Maximum-Flux-Residual          L2-NORM 
          0                 1           2             4    7     1       0.2624589705E-01       4    7    1         0.1382007212E+01      0.2870450164E+01
          0                 2           2             4    7     1      -0.2553024905E-02       4    7    1        -0.1382017261E+00      0.2870456009E+00
          0                 3           2             4    7     1       0.1738513866E-03       4    7    1         0.9674115509E-02      0.2009318667E-01
          0                 4           1             4    7     1      -0.6917710115E-05       4    7    1        -0.3956719142E-03      0.8218151744E-03

    ------------------------------------------------
       NWT REQUIRED            4 OUTER ITERATIONS 
       AND A TOTAL OF          7 INNER ITERATIONS.
    ------------------------------------------------

 NO OUTPUT CONTROL FOR STRESS PERIOD   48   TIME STEP   21
 
 SOLVING FOR HEAD 
                                                   Max.-Head-Change                         Max.-Flux-Residual
  Residual-Control   Outer-Iter.   Inner-Iter.     Column Row Layer    Maximum-Head-Change  Column Row Layer    Maximum-Flux-Residual          L2-NORM 
          0                 1           2             4    7     1       0.2589927168E-01       4    7    1         0.1363683699E+01      0.2837925472E+01
          0                 2           2             4    7     1      -0.2519307636E-02       4    7    1        -0.1363693493E+00      0.2837890184E+00
          0                 3           2             4    7     1       0.1715556633E-03       4    7    1         0.9545849309E-02      0.1987397482E-01
          0                 4           1             4    7     1      -0.6826360509E-05       4    7    1        -0.3904257990E-03      0.8128478774E-03

    ------------------------------------------------
       NWT REQUIRED            4 OUTER ITERATIONS 
       AND A TOTAL OF          7 INNER ITERATIONS.
    ------------------------------------------------

 NO OUTPUT CONTROL FOR STRESS PERIOD   48   TIME STEP   22
 
 SOLVING FOR HEAD 
                                                   Max.-Head-Change                         Max.-Flux-Residual
  Residual-Control   Outer-Iter.   Inner-Iter.     Column Row Layer    Maximum-Head-Change  Column Row Layer    Maximum-Flux-Residual          L2-NORM 
          0                 1           2             4    7     1       0.2555861647E-01       4    7    1         0.1345675110E+01      0.2806023314E+01
          0                 2           2             4    7     1      -0.2486166279E-02       4    7    1        -0.1345684655E+00      0.2804843163E+00
          0                 3           2             4    7     1       0.1692985696E-03       4    7    1         0.9419787629E-02      0.1963389832E-01
          0                 4           1             4    7     1      -0.6736549238E-05       4    7    1        -0.3852699072E-03      0.8030252988E-03

    ------------------------------------------------
       NWT REQUIRED            4 OUTER ITERATIONS 
       AND A TOTAL OF          7 INNER ITERATIONS.
    ------------------------------------------------

 NO OUTPUT CONTROL FOR STRESS PERIOD   48   TIME STEP   23
 
 SOLVING FOR HEAD 
                                                   Max.-Head-Change                         Max.-Flux-Residual
  Residual-Control   Outer-Iter.   Inner-Iter.     Column Row Layer    Maximum-Head-Change  Column Row Layer    Maximum-Flux-Residual          L2-NORM 
          0                 1           2             4    7     1       0.2522370981E-01       4    7    1         0.1327968990E+01      0.2774824242E+01
          0                 2           2             4    7     1      -0.2453592862E-02       4    7    1        -0.1327978291E+00      0.2774829850E+00
          0                 3           2             4    7     1       0.1670804436E-03       4    7    1         0.9295843243E-02      0.1942380419E-01
          0                 4           1             4    7     1      -0.6648287699E-05       4    7    1        -0.3802005581E-03      0.7944348369E-03

    ------------------------------------------------
       NWT REQUIRED            4 OUTER ITERATIONS 
       AND A TOTAL OF          7 INNER ITERATIONS.
    ------------------------------------------------

 NO OUTPUT CONTROL FOR STRESS PERIOD   48   TIME STEP   24
 
 SOLVING FOR HEAD 
                                                   Max.-Head-Change                         Max.-Flux-Residual
  Residual-Control   Outer-Iter.   Inner-Iter.     Column Row Layer    Maximum-Head-Change  Column Row Layer    Maximum-Flux-Residual          L2-NORM 
          0                 1           2             4    7     1       0.2489471442E-01       4    7    1         0.1310575066E+01      0.2744222290E+01
          0                 2           2             4    7     1      -0.2421590235E-02       4    7    1        -0.1310584131E+00      0.2744227065E+00
          0                 3           2             4    7     1       0.1649011870E-03       4    7    1         0.9174084318E-02      0.1920957628E-01
          0                 4           1             4    7     1      -0.6561573130E-05       4    7    1        -0.3752206039E-03      0.7856733836E-03

    ------------------------------------------------
       NWT REQUIRED            4 OUTER ITERATIONS 
       AND A TOTAL OF          7 INNER ITERATIONS.
    ------------------------------------------------

 NO OUTPUT CONTROL FOR STRESS PERIOD   48   TIME STEP   25
 
 SOLVING FOR HEAD 
                                                   Max.-Head-Change                         Max.-Flux-Residual
  Residual-Control   Outer-Iter.   Inner-Iter.     Column Row Layer    Maximum-Head-Change  Column Row Layer    Maximum-Flux-Residual          L2-NORM 
          0                 1           2             4    7     1       0.2457139501E-01       4    7    1         0.1293480560E+01      0.2714190960E+01
          0                 2           2             4    7     1      -0.2390139733E-02       4    7    1        -0.1293489394E+00      0.2714196091E+00
          0                 3           2             4    7     1       0.1627595268E-03       4    7    1         0.9054421298E-02      0.1899936380E-01
          0                 4           1             4    7     1      -0.6476354529E-05       4    7    1        -0.3703263835E-03      0.7770730944E-03

    ------------------------------------------------
       NWT REQUIRED            4 OUTER ITERATIONS 
       AND A TOTAL OF          7 INNER ITERATIONS.
    ------------------------------------------------

 NO OUTPUT CONTROL FOR STRESS PERIOD   48   TIME STEP   26
 
 SOLVING FOR HEAD 
                                                   Max.-Head-Change                         Max.-Flux-Residual
  Residual-Control   Outer-Iter.   Inner-Iter.     Column Row Layer    Maximum-Head-Change  Column Row Layer    Maximum-Flux-Residual          L2-NORM 
          0                 1           2             4    7     1       0.2425364770E-01       4    7    1         0.1276680342E+01      0.2684703161E+01
          0                 2           2             4    7     1      -0.2359231322E-02       4    7    1        -0.1276688951E+00      0.2684708925E+00
          0                 3           2             4    7     1       0.1606547821E-03       4    7    1         0.8936818381E-02      0.1879295322E-01
          0                 4           1             4    7     1      -0.6392604611E-05       4    7    1        -0.3655164205E-03      0.7686305450E-03

    ------------------------------------------------
       NWT REQUIRED            4 OUTER ITERATIONS 
       AND A TOTAL OF          7 INNER ITERATIONS.
    ------------------------------------------------

 NO OUTPUT CONTROL FOR STRESS PERIOD   48   TIME STEP   27
 
 SOLVING FOR HEAD 
                                                   Max.-Head-Change                         Max.-Flux-Residual
  Residual-Control   Outer-Iter.   Inner-Iter.     Column Row Layer    Maximum-Head-Change  Column Row Layer    Maximum-Flux-Residual          L2-NORM 
          0                 1           2             4    7     1       0.2394137421E-01       4    7    1         0.1260169024E+01      0.2655763713E+01
          0                 2           2             4    7     1      -0.2328855302E-02       4    7    1        -0.1260177414E+00      0.2655769186E+00
          0                 3           2             4    7     1       0.1585862907E-03       4    7    1         0.8821237762E-02      0.1859037653E-01
          0                 4           1             4    7     1      -0.6310297471E-05       4    7    1        -0.3607891624E-03      0.7603500538E-03

    ------------------------------------------------
       NWT REQUIRED            4 OUTER ITERATIONS 
       AND A TOTAL OF          7 INNER ITERATIONS.
    ------------------------------------------------

 NO OUTPUT CONTROL FOR STRESS PERIOD   48   TIME STEP   28
 
 SOLVING FOR HEAD 
                                                   Max.-Head-Change                         Max.-Flux-Residual
  Residual-Control   Outer-Iter.   Inner-Iter.     Column Row Layer    Maximum-Head-Change  Column Row Layer    Maximum-Flux-Residual          L2-NORM 
          0                 1           2             4    7     1       0.2363460850E-01       4    7    1         0.1243948817E+01      0.2627350891E+01
          0                 2           2             4    7     1      -0.2299015047E-02       4    7    1        -0.1243956994E+00      0.2627356043E+00
          0                 3           2             4    7     1       0.1565542833E-03       4    7    1         0.8707694979E-02      0.1839148351E-01
          0                 4           1             4    7     1      -0.6229442322E-05       4    7    1        -0.3561452675E-03      0.7522123190E-03

    ------------------------------------------------
       NWT REQUIRED            4 OUTER ITERATIONS 
       AND A TOTAL OF          7 INNER ITERATIONS.
    ------------------------------------------------

 NO OUTPUT CONTROL FOR STRESS PERIOD   48   TIME STEP   29
 
 SOLVING FOR HEAD 
                                                   Max.-Head-Change                         Max.-Flux-Residual
  Residual-Control   Outer-Iter.   Inner-Iter.     Column Row Layer    Maximum-Head-Change  Column Row Layer    Maximum-Flux-Residual          L2-NORM 
          0                 1           2             4    7     1       0.2333310936E-01       4    7    1         0.1228006880E+01      0.2599452328E+01
          0                 2           2             4    7     1      -0.2269687095E-02       4    7    1        -0.1228014848E+00      0.2599457230E+00
          0                 3           2             4    7     1       0.1545571615E-03       4    7    1         0.8596100118E-02      0.1819619094E-01
          0                 4           1             4    7     1      -0.6149974805E-05       4    7    1        -0.3515810206E-03      0.7442247598E-03

    ------------------------------------------------
       NWT REQUIRED            4 OUTER ITERATIONS 
       AND A TOTAL OF          7 INNER ITERATIONS.
    ------------------------------------------------

 NO OUTPUT CONTROL FOR STRESS PERIOD   48   TIME STEP   30



 STREAM LISTING     PERIOD     48   STEP       30

 LAYER ROW COL. STREAM  RCH.  FLOW INTO     FLOW TO   FLOW OUT OF   OVRLND.     DIRECT     STREAM       STREAM     STREAM     STREAM   STREAMBED  STREAMBED
                SEG.NO.  NO.  STRM. RCH.    AQUIFER    STRM. RCH.    RUNOFF     PRECIP       ET          HEAD       DEPTH      WIDTH   CONDCTNC.   GRADIENT

   1    1    1     1     1    7.8748E+00  1.2804E-01   7.7467E+00  0.000E+00  0.000E+00  0.000E+00  1.09388E+03  8.295E-01  7.430E+00  3.344E-02  1.276E+00
   1    2    2     1     2    7.7467E+00  1.9662E-01   7.5501E+00  0.000E+00  0.000E+00  0.000E+00  1.08888E+03  8.237E-01  7.346E+00  5.142E-02  1.275E+00
   1    3    3     1     3    7.5501E+00  1.6606E-01   7.3840E+00  0.000E+00  0.000E+00  0.000E+00  1.08324E+03  8.172E-01  7.251E+00  4.350E-02  1.272E+00
   1    3    4     1     4    7.3840E+00  1.5159E-01   7.2324E+00  0.000E+00  0.000E+00  0.000E+00  1.07822E+03  8.115E-01  7.166E+00  3.977E-02  1.270E+00
   1    4    5     2     1    5.2324E+00  2.7028E-01   4.9622E+00  0.000E+00  0.000E+00  0.000E+00  1.07240E+03  4.651E-01  1.200E+01  7.800E-02  1.155E+00
   1    5    6     2     2    4.9622E+00  2.0711E-01   4.7551E+00  0.000E+00  0.000E+00  0.000E+00  1.06696E+03  4.519E-01  1.200E+01  6.000E-02  1.151E+00
   1    6    6     2     3    4.7551E+00  2.0642E-01   4.5486E+00  0.000E+00  0.000E+00  0.000E+00  1.06223E+03  4.403E-01  1.200E+01  6.000E-02  1.147E+00
   1    7    6     2     4    4.5486E+00  2.0571E-01   4.3429E+00  0.000E+00  0.000E+00  0.000E+00  1.05750E+03  4.285E-01  1.200E+01  6.000E-02  1.143E+00
   1    8    6     2     5    4.3429E+00  2.0499E-01   4.1379E+00  0.000E+00  0.000E+00  0.000E+00  1.05278E+03  4.165E-01  1.200E+01  6.000E-02  1.139E+00
   1    3    5     3     1    2.0000E+00  2.8252E-01   1.7175E+00  0.000E+00  0.000E+00  0.000E+00  1.07555E+03  1.909E+00  9.636E+00  7.227E-02  1.955E+00
   1    3    6     3     2    1.7175E+00  2.4905E-01   1.4684E+00  0.000E+00  0.000E+00  0.000E+00  1.07264E+03  1.727E+00  8.909E+00  6.682E-02  1.864E+00
   1    3    7     3     3    1.4684E+00  1.9718E-01   1.2712E+00  0.000E+00  0.000E+00  0.000E+00  1.06987E+03  1.555E+00  8.218E+00  5.547E-02  1.777E+00
   1    4    8     3     4    1.2712E+00  2.2567E-01   1.0456E+00  0.000E+00  0.000E+00  0.000E+00  1.06682E+03  1.364E+00  7.455E+00  6.709E-02  1.682E+00
   1    5    8     3     5    1.0456E+00  1.5790E-01   8.8768E-01  0.000E+00  0.000E+00  0.000E+00  1.06362E+03  1.164E+00  6.655E+00  4.991E-02  1.582E+00
   1    6    8     3     6    8.8768E-01  5.5980E-02   8.3170E-01  0.000E+00  0.000E+00  0.000E+00  1.06158E+03  1.036E+00  6.145E+00  1.844E-02  1.518E+00
   1    5   10     4     1    1.0000E+01  9.0919E-02   9.9091E+00  0.000E+00  0.000E+00  0.000E+00  1.07836E+03  6.368E-01  1.000E+01  2.500E-02  1.212E+00
   1    5    9     4     2    9.9091E+00  1.8158E-01   9.7275E+00  0.000E+00  0.000E+00  0.000E+00  1.07154E+03  6.315E-01  1.000E+01  5.000E-02  1.211E+00
   1    6    8     4     3    9.7275E+00  1.2689E-01   9.6006E+00  0.000E+00  0.000E+00  0.000E+00  1.06381E+03  6.256E-01  1.000E+01  3.500E-02  1.209E+00
   1    6    8     5     1    1.0432E+01  2.2686E-01   1.0205E+01  0.000E+00  0.000E+00  0.000E+00  1.05868E+03  6.790E-01  1.542E+01  6.166E-02  1.226E+00
   1    7    7     5     2    1.0205E+01  2.7894E-01   9.9265E+00  0.000E+00  0.000E+00  0.000E+00  1.05417E+03  6.732E-01  1.519E+01  7.594E-02  1.224E+00
   1    8    7     5     3    9.9265E+00  1.9221E-01   9.7343E+00  0.000E+00  0.000E+00  0.000E+00  1.04992E+03  6.676E-01  1.497E+01  5.241E-02  1.223E+00
   1    8    6     5     4    9.7343E+00  1.3577E-01   9.5985E+00  0.000E+00  0.000E+00  0.000E+00  1.04691E+03  6.637E-01  1.482E+01  3.706E-02  1.221E+00
   1    9    6     6     1    1.3736E+01  2.3089E-01   1.3506E+01  0.000E+00  0.000E+00  0.000E+00  1.04358E+03  8.482E-01  1.200E+01  6.000E-02  1.283E+00
   1   10    7     6     2    1.3506E+01  2.3037E-01   1.3275E+01  0.000E+00  0.000E+00  0.000E+00  1.03902E+03  8.396E-01  1.200E+01  6.000E-02  1.280E+00
   1   11    7     6     3    1.3275E+01  2.2985E-01   1.3045E+01  0.000E+00  0.000E+00  0.000E+00  1.03447E+03  8.309E-01  1.200E+01  6.000E-02  1.277E+00
   1   12    7     6     4    1.3045E+01  2.2933E-01   1.2816E+01  0.000E+00  0.000E+00  0.000E+00  1.02991E+03  8.221E-01  1.200E+01  6.000E-02  1.274E+00
   1   13    7     6     5    1.2816E+01  3.6966E-03   1.2812E+01  0.000E+00  0.000E+00  0.000E+00  1.02673E+03  8.177E-01  1.200E+01  2.400E-02  5.134E-02
   1   14    9     7     1    1.5000E+02  1.3947E+00   1.4861E+02  0.000E+00  0.000E+00  0.000E+00  1.03987E+03  2.288E+00  5.529E+01  5.593E-01  8.312E-01
   1   13    8     7     2    1.4861E+02  2.0039E+00   1.4660E+02  0.000E+00  0.000E+00  0.000E+00  1.03478E+03  2.279E+00  5.525E+01  6.147E-01  1.087E+00
   1   13    7     7     3    1.4660E+02  1.7393E+00   1.4486E+02  0.000E+00  0.000E+00  0.000E+00  1.02969E+03  2.269E+00  5.521E+01  5.584E-01  1.038E+00
   1   13    6     8     1    1.5767E+02  1.1137E+00   1.5656E+02  0.000E+00  0.000E+00  0.000E+00  1.02474E+03  2.866E+00  4.156E+01  4.235E-01  8.766E-01
   1   13    5     8     2    1.5656E+02  3.6130E-01   1.5620E+02  0.000E+00  0.000E+00  0.000E+00  1.01849E+03  2.861E+00  4.149E+01  4.228E-01  2.849E-01
   1   13    4     8     3    1.5620E+02 -1.7903E+00   1.5799E+02  0.000E+00  0.000E+00  0.000E+00  1.01224E+03  2.866E+00  4.156E+01  4.235E+00 -1.409E-01
   1   13    3     8     4    1.5799E+02 -3.3222E+00   1.6131E+02  0.000E+00  0.000E+00  0.000E+00  1.00601E+03  2.883E+00  4.181E+01  4.261E+00 -2.599E-01
   1   13    2     8     5    1.6131E+02 -2.4916E+00   1.6380E+02  0.000E+00  0.000E+00  0.000E+00  9.99778E+02  2.903E+00  4.209E+01  4.290E+00 -1.936E-01
   1   13    1     8     6    1.6380E+02 -1.9536E+00   1.6576E+02  0.000E+00  0.000E+00  0.000E+00  9.94793E+02  2.918E+00  4.231E+01  2.587E+00 -2.517E-01
   1    8    6     9     1    0.0000E+00  0.0000E+00   0.0000E+00  0.000E+00  0.000E+00  0.000E+00  1.07875E+03  0.000E+00  4.000E+00  0.000E+00  1.000E+00
   1    8    5     9     2    0.0000E+00  0.0000E+00   0.0000E+00  0.000E+00  0.000E+00  0.000E+00  1.07825E+03  0.000E+00  4.000E+00  0.000E+00  1.000E+00





UNSATURATED ZONE PACKAGE VOLUMETRIC BUDGET FOR  TIME STEP    30 STRESS PERIOD   48
  ------------------------------------------------------------------------------



     CUMULATIVE VOLUMES      L**3       RATES FOR THIS TIME STEP      L**3/T
     ------------------                 ------------------------

           IN:                                      IN:
           ---                                      ---
        INFILTRATION =  1710552818.6411          INFILTRATION =           0.8475

          OUT:                                     OUT:
          ----                                     ----
              UZF ET =  1703460452.6591                UZF ET =           0.7500
        UZF RECHARGE =       73224.0000          UZF RECHARGE =       0.0000E+00

            IN - OUT =     7019141.9820              IN - OUT =       9.7500E-02

          STORAGE:                                 STORAGE:
          --------                                 --------
      STORAGE CHANGE =     7019141.1169        STORAGE CHANGE =       9.7500E-02

 PERCENT DISCREPANCY IS DIFFERENCE BETWEEN IN-OUT MINUS CHANGE IN STORAGE
 DIVIDED BY THE AVERAGE OF IN AND OUT TIMES 100

 PERCENT DISCREPANCY =           0.00     PERCENT DISCREPANCY =           0.00






1
  VOLUMETRIC BUDGET FOR AGRICULTURAL FIELDS AT  END OF TIME STEP   30, STRESS PERIOD  48
  ------------------------------------------------------------------------------

     CUMULATIVE VOLUMES      L**3       RATES FOR THIS TIME STEP      L**3/T
     ------------------                 ------------------------

           IN:                                      IN:
           ---                                      ---
           AG WELLS      =   855545344.0000             AG WELLS      =           0.0000
      DIVERSION SEGMENTS =   750254336.0000        DIVERSION SEGMENTS =           0.0000
           GW IRRIGATION =           0.0000             GW IRRIGATION =           0.0000
           SW IRRIGATION =           0.0000             SW IRRIGATION =           0.0000
        SYSTEM LOSSES GW =           0.0000          SYSTEM LOSSES GW =           0.0000
        SYSTEM LOSSES SW =           0.0000          SYSTEM LOSSES SW =           0.0000

                TOTAL IN =  1605799680.0000                  TOTAL IN =           0.0000

          OUT:                                     OUT:
          ----                                     ----
           AG WELLS      =           0.0000             AG WELLS      =           0.0000
      DIVERSION SEGMENTS =           0.0000        DIVERSION SEGMENTS =           0.0000
           GW IRRIGATION =   855545344.0000             GW IRRIGATION =           0.0000
           SW IRRIGATION =   750267456.0000             SW IRRIGATION =           0.0000
        SYSTEM LOSSES GW =           0.0000          SYSTEM LOSSES GW =           0.0000
        SYSTEM LOSSES SW =           0.0000          SYSTEM LOSSES SW =           0.0000

               TOTAL OUT =  1605812736.0000                 TOTAL OUT =           0.0000

                IN - OUT =      -13056.0000                  IN - OUT =           0.0000

     PERCENT DISCREPANCY =          -0.00         PERCENT DISCREPANCY =           0.00



1
  VOLUMETRIC BUDGET FOR ENTIRE MODEL AT END OF TIME STEP   30, STRESS PERIOD  48
  ------------------------------------------------------------------------------

     CUMULATIVE VOLUMES      L**3       RATES FOR THIS TIME STEP      L**3/T
     ------------------                 ------------------------

           IN:                                      IN:
           ---                                      ---
             STORAGE     =  1219942656.0000               STORAGE     =           5.8019
       CONSTANT HEAD     =           0.0000         CONSTANT HEAD     =           0.0000
     HEAD DEP BOUNDS     =    35695396.0000       HEAD DEP BOUNDS     =           0.2898
      STREAM LEAKAGE     =  1467871232.0000        STREAM LEAKAGE     =          11.6754
        UZF RECHARGE     =       73223.9531          UZF RECHARGE     =           0.0000
               GW ET     =           0.0000                 GW ET     =           0.0000
     SURFACE LEAKAGE     =           0.0000       SURFACE LEAKAGE     =           0.0000
           AG WELLS      =           0.0000             AG WELLS      =           0.0000

                TOTAL IN =  2723582464.0000                  TOTAL IN =          17.7671

          OUT:                                     OUT:
          ----                                     ----
             STORAGE     =   595768576.0000               STORAGE     =           7.9226
       CONSTANT HEAD     =           0.0000         CONSTANT HEAD     =           0.0000
     HEAD DEP BOUNDS     =    35594360.0000       HEAD DEP BOUNDS     =           0.2868
      STREAM LEAKAGE     =  1236690816.0000        STREAM LEAKAGE     =           9.5577
        UZF RECHARGE     =           0.0000          UZF RECHARGE     =           0.0000
               GW ET     =           0.0000                 GW ET     =           0.0000
     SURFACE LEAKAGE     =           0.0000       SURFACE LEAKAGE     =           0.0000
           AG WELLS      =   855545344.0000             AG WELLS      =           0.0000

               TOTAL OUT =  2723599104.0000                 TOTAL OUT =          17.7671

                IN - OUT =      -16640.0000                  IN - OUT =       1.1444E-05

     PERCENT DISCREPANCY =          -0.00         PERCENT DISCREPANCY =           0.00






         TIME SUMMARY AT END OF TIME STEP   30 IN STRESS PERIOD   48
                    SECONDS     MINUTES      HOURS       DAYS        YEARS
                    -----------------------------------------------------------
   TIME STEP LENGTH  87667.      1461.1      24.352      1.0147     2.77799E-03
 STRESS PERIOD TIME 2.63000E+06  43833.      730.56      30.440     8.33397E-02
         TOTAL TIME 1.23695E+08 2.06158E+06  34360.      1431.7      3.9197    
1
1
                            STRESS PERIOD NO.   49, LENGTH =   2630000.    
                            -----------------------------------------------

                              NUMBER OF TIME STEPS =    30

                               MULTIPLIER FOR DELT =     1.000

                            INITIAL TIME STEP SIZE =   87666.66    

 REUSING NON-PARAMETER GHB CELLS FROM LAST STRESS PERIOD

      2 GHB CELLS

 REUSING STREAM SEGMENT DATA FROM LAST STRESS PERIOD



            AREAL INFILTRATION RATE
 READING ON UNIT   19 WITH FORMAT: (FREE)              

            1           2           3           4           5           6           7           8           9          10
 ........................................................................................................................
   1   1.0000E-10  2.0000E-10   0.000       0.000       0.000       0.000       0.000       0.000       0.000       0.000    
   2   2.0000E-10  1.0000E-10  2.0000E-10   0.000       0.000      8.0000E-10  8.0000E-10  5.0000E-10   0.000       0.000    
   3    0.000      5.0000E-10  1.0000E-10  1.0000E-10  8.0000E-10  8.0000E-10  5.0000E-10  5.0000E-10   0.000       0.000    
   4   8.0000E-10  5.0000E-10  1.0000E-10  1.0000E-10  1.0000E-10  1.0000E-10  1.0000E-10  1.0000E-10  2.0000E-10   0.000    
   5   8.0000E-10  5.0000E-10  1.0000E-10  1.0000E-10  1.0000E-10  1.0000E-10  1.0000E-10  1.0000E-10  1.0000E-10  1.0000E-10
   6   8.0000E-10  5.0000E-10  5.0000E-10  2.0000E-10  2.0000E-10  1.0000E-10  1.0000E-10  1.0000E-10  1.0000E-10  5.0000E-10
   7   8.0000E-10  5.0000E-10  5.0000E-10  2.0000E-10  2.0000E-10  1.0000E-10  1.0000E-10  2.0000E-10  2.0000E-10   0.000    
   8    0.000      5.0000E-10  5.0000E-10  2.0000E-10  2.0000E-10  1.0000E-10  1.0000E-10  2.0000E-10  5.0000E-10   0.000    
   9    0.000      5.0000E-10  5.0000E-10  2.0000E-10  2.0000E-10  1.0000E-10  1.0000E-10  2.0000E-10  5.0000E-10   0.000    
  10    0.000      5.0000E-10  5.0000E-10  2.0000E-10  2.0000E-10  1.0000E-10  1.0000E-10  2.0000E-10  5.0000E-10  8.0000E-10
  11    0.000      1.0000E-10  1.0000E-10  1.0000E-10  1.0000E-10  1.0000E-10  1.0000E-10  2.0000E-10  5.0000E-10   0.000    
  12   1.0000E-10  1.0000E-10  1.0000E-10  1.0000E-10  1.0000E-10  1.0000E-10  1.0000E-10  1.0000E-10  2.0000E-10   0.000    
  13   1.0000E-10  1.0000E-10  2.0000E-10  2.0000E-10  2.0000E-10  2.0000E-10  2.0000E-10  1.0000E-10  1.0000E-10   0.000    
  14    0.000      2.0000E-10  5.0000E-10  5.0000E-10  5.0000E-10  5.0000E-10  5.0000E-10  2.0000E-10  1.0000E-10   0.000    
  15    0.000       0.000      8.0000E-10  8.0000E-10  8.0000E-10  8.0000E-10   0.000       0.000       0.000       0.000    

                  ET RATE =  5.000000E-10

 USING ET EXTINCTION DEPTH FROM PREVIOUS STRESS PERIOD. CURRENT PERIOD IS:      49

 USING EXTINCTION WATER CONTENT FROM PREVIOUS STRESS PERIOD. CURRENT PERIOD IS:      49

 USING AIR ENTRY PRESSURE FROM PREVIOUS STRESS PERIOD. CURRENT PERIOD IS:      49

 USING ROOT PRESSURE HEAD FROM PREVIOUS STRESS PERIOD. CURRENT PERIOD IS:      49

 USING ROOT ACTIVITY FROM PREVIOUS STRESS PERIOD. CURRENT PERIOD IS:      49

 PROCESSING AG STRESS PERIOD DATA

 READING AG STRESS PERIOD DATA

 READING IRRIGATION SEGMENT

 READING IRRIGATION WELL

 READING SUPPLEMENTAL WELL

 END PROCESSING AG STRESS PERIOD DATA OPTIONS
 
 SOLVING FOR HEAD 
                                                   Max.-Head-Change                         Max.-Flux-Residual
  Residual-Control   Outer-Iter.   Inner-Iter.     Column Row Layer    Maximum-Head-Change  Column Row Layer    Maximum-Flux-Residual          L2-NORM 
          0                 1           2             4    7     1       0.2303678070E-01       4    7    1         0.1212338005E+01      0.2572053187E+01
          0                 2           2             4    7     1      -0.2240862096E-02       4    7    1        -0.1212345770E+00      0.2572057828E+00
          0                 3           2             4    7     1       0.1525942887E-03       4    7    1         0.8486416708E-02      0.1800438701E-01
          0                 4           1             4    7     1      -0.6071869938E-05       4    7    1        -0.3470949619E-03      0.7363791101E-03

    ------------------------------------------------
       NWT REQUIRED            4 OUTER ITERATIONS 
       AND A TOTAL OF          7 INNER ITERATIONS.
    ------------------------------------------------

 NO OUTPUT CONTROL FOR STRESS PERIOD   49   TIME STEP    1
 
 SOLVING FOR HEAD 
                                                   Max.-Head-Change                         Max.-Flux-Residual
  Residual-Control   Outer-Iter.   Inner-Iter.     Column Row Layer    Maximum-Head-Change  Column Row Layer    Maximum-Flux-Residual          L2-NORM 
          0                 1           2             4    7     1       0.2274565552E-01       4    7    1         0.1196944510E+01      0.2545141067E+01
          0                 2           2             4    7     1      -0.2212543263E-02       4    7    1        -0.1196952079E+00      0.2545145434E+00
          0                 3           2             4    7     1       0.1506658840E-03       4    7    1         0.8378661005E-02      0.1781600113E-01
          0                 4           1             4    7     1      -0.5995137392E-05       4    7    1        -0.3426877452E-03      0.7286716289E-03

    ------------------------------------------------
       NWT REQUIRED            4 OUTER ITERATIONS 
       AND A TOTAL OF          7 INNER ITERATIONS.
    ------------------------------------------------

 NO OUTPUT CONTROL FOR STRESS PERIOD   49   TIME STEP    2
 
 SOLVING FOR HEAD 
                                                   Max.-Head-Change                         Max.-Flux-Residual
  Residual-Control   Outer-Iter.   Inner-Iter.     Column Row Layer    Maximum-Head-Change  Column Row Layer    Maximum-Flux-Residual          L2-NORM 
          0                 1           2             4    7     1       0.2245963135E-01       4    7    1         0.1181820808E+01      0.2518710327E+01
          0                 2           2             4    7     1      -0.2184721257E-02       4    7    1        -0.1181828185E+00      0.2519100797E+00
          0                 3           2             4    7     1       0.1487713111E-03       4    7    1         0.8272793875E-02      0.1763368698E-01
          0                 4           1             4    7     1      -0.5919750228E-05       4    7    1        -0.3383577730E-03      0.7212248172E-03

    ------------------------------------------------
       NWT REQUIRED            4 OUTER ITERATIONS 
       AND A TOTAL OF          7 INNER ITERATIONS.
    ------------------------------------------------

 NO OUTPUT CONTROL FOR STRESS PERIOD   49   TIME STEP    3
 
 SOLVING FOR HEAD 
                                                   Max.-Head-Change                         Max.-Flux-Residual
  Residual-Control   Outer-Iter.   Inner-Iter.     Column Row Layer    Maximum-Head-Change  Column Row Layer    Maximum-Flux-Residual          L2-NORM 
          0                 1           2             4    7     1       0.2217860364E-01       4    7    1         0.1166961550E+01      0.2493164230E+01
          0                 2           2             4    7     1      -0.2157384017E-02       4    7    1        -0.1166968740E+00      0.2493165542E+00
          0                 3           2             4    7     1       0.1469097493E-03       4    7    1         0.8168777910E-02      0.1745211923E-01
          0                 4           1             4    7     1      -0.5845676784E-05       4    7    1        -0.3341035078E-03      0.7137888665E-03

    ------------------------------------------------
       NWT REQUIRED            4 OUTER ITERATIONS 
       AND A TOTAL OF          7 INNER ITERATIONS.
    ------------------------------------------------

 NO OUTPUT CONTROL FOR STRESS PERIOD   49   TIME STEP    4
 
 SOLVING FOR HEAD 
                                                   Max.-Head-Change                         Max.-Flux-Residual
  Residual-Control   Outer-Iter.   Inner-Iter.     Column Row Layer    Maximum-Head-Change  Column Row Layer    Maximum-Flux-Residual          L2-NORM 
          0                 1           2             4    7     1       0.2190233340E-01       4    7    1         0.1152354117E+01      0.2468037239E+01
          0                 2           2             4    7     1      -0.2130510187E-02       4    7    1        -0.1152361125E+00      0.2468035155E+00
          0                 3           2             4    7     1       0.1450797438E-03       4    7    1         0.8066524733E-02      0.1727617629E-01
          0                 4           1             4    7     1      -0.5772859268E-05       4    7    1        -0.3299213454E-03      0.7065993662E-03

    ------------------------------------------------
       NWT REQUIRED            4 OUTER ITERATIONS 
       AND A TOTAL OF          7 INNER ITERATIONS.
    ------------------------------------------------

 NO OUTPUT CONTROL FOR STRESS PERIOD   49   TIME STEP    5
 
 SOLVING FOR HEAD 
                                                   Max.-Head-Change                         Max.-Flux-Residual
  Residual-Control   Outer-Iter.   Inner-Iter.     Column Row Layer    Maximum-Head-Change  Column Row Layer    Maximum-Flux-Residual          L2-NORM 
          0                 1           2             4    7     1       0.2163086361E-01       4    7    1         0.1138000618E+01      0.2442914050E+01
          0                 2           2             4    7     1      -0.2104103317E-02       4    7    1        -0.1138007450E+00      0.2442910922E+00
          0                 3           2             4    7     1       0.1432815360E-03       4    7    1         0.7966049113E-02      0.1710022565E-01
          0                 4           1             4    7     1      -0.5701306658E-05       4    7    1        -0.3258118802E-03      0.6993991528E-03

    ------------------------------------------------
       NWT REQUIRED            4 OUTER ITERATIONS 
       AND A TOTAL OF          7 INNER ITERATIONS.
    ------------------------------------------------

 NO OUTPUT CONTROL FOR STRESS PERIOD   49   TIME STEP    6
 
 SOLVING FOR HEAD 
                                                   Max.-Head-Change                         Max.-Flux-Residual
  Residual-Control   Outer-Iter.   Inner-Iter.     Column Row Layer    Maximum-Head-Change  Column Row Layer    Maximum-Flux-Residual          L2-NORM 
          0                 1           2             4    7     1       0.2136409318E-01       4    7    1         0.1123896015E+01      0.2418220673E+01
          0                 2           2             4    7     1      -0.2078153574E-02       4    7    1        -0.1123902675E+00      0.2418218889E+00
          0                 3           2             4    7     1       0.1415144575E-03       4    7    1         0.7867315811E-02      0.1692746622E-01
          0                 4           1             4    7     1      -0.5630993052E-05       4    7    1        -0.3217736930E-03      0.6923348804E-03

    ------------------------------------------------
       NWT REQUIRED            4 OUTER ITERATIONS 
       AND A TOTAL OF          7 INNER ITERATIONS.
    ------------------------------------------------

 NO OUTPUT CONTROL FOR STRESS PERIOD   49   TIME STEP    7
 
 SOLVING FOR HEAD 
                                                   Max.-Head-Change                         Max.-Flux-Residual
  Residual-Control   Outer-Iter.   Inner-Iter.     Column Row Layer    Maximum-Head-Change  Column Row Layer    Maximum-Flux-Residual          L2-NORM 
          0                 1           2             4    7     1       0.2110206130E-01       4    7    1         0.1110042368E+01      0.2393958584E+01
          0                 2           2             4    7     1      -0.2052664771E-02       4    7    1        -0.1110048861E+00      0.2393957038E+00
          0                 3           2             4    7     1       0.1397787671E-03       4    7    1         0.7770339239E-02      0.1675764407E-01
          0                 4           1             4    7     1      -0.5561928695E-05       4    7    1        -0.3178073528E-03      0.6853827504E-03

    ------------------------------------------------
       NWT REQUIRED            4 OUTER ITERATIONS 
       AND A TOTAL OF          7 INNER ITERATIONS.
    ------------------------------------------------

 NO OUTPUT CONTROL FOR STRESS PERIOD   49   TIME STEP    8
 
 SOLVING FOR HEAD 
                                                   Max.-Head-Change                         Max.-Flux-Residual
  Residual-Control   Outer-Iter.   Inner-Iter.     Column Row Layer    Maximum-Head-Change  Column Row Layer    Maximum-Flux-Residual          L2-NORM 
          0                 1           2             4    7     1       0.2084439728E-01       4    7    1         0.1096419802E+01      0.2370109436E+01
          0                 2           2             4    7     1      -0.2027600846E-02       4    7    1        -0.1096426132E+00      0.2370107946E+00
          0                 3           2             4    7     1       0.1380720090E-03       4    7    1         0.7674980255E-02      0.1659069315E-01
          0                 4           1             4    7     1      -0.5494014694E-05       4    7    1        -0.3139071546E-03      0.6785584410E-03

    ------------------------------------------------
       NWT REQUIRED            4 OUTER ITERATIONS 
       AND A TOTAL OF          7 INNER ITERATIONS.
    ------------------------------------------------

 NO OUTPUT CONTROL FOR STRESS PERIOD   49   TIME STEP    9
 
 SOLVING FOR HEAD 
                                                   Max.-Head-Change                         Max.-Flux-Residual
  Residual-Control   Outer-Iter.   Inner-Iter.     Column Row Layer    Maximum-Head-Change  Column Row Layer    Maximum-Flux-Residual          L2-NORM 
          0                 1           2             4    7     1       0.2059114992E-01       4    7    1         0.1083031005E+01      0.2346665766E+01
          0                 2           2             4    7     1      -0.2002966550E-02       4    7    1        -0.1083037177E+00      0.2346664276E+00
          0                 3           2             4    7     1       0.1363945071E-03       4    7    1         0.7581257674E-02      0.1642657999E-01
          0                 4           1             4    7     1      -0.5427265668E-05       4    7    1        -0.3100738988E-03      0.6718651042E-03

    ------------------------------------------------
       NWT REQUIRED            4 OUTER ITERATIONS 
       AND A TOTAL OF          7 INNER ITERATIONS.
    ------------------------------------------------

 NO OUTPUT CONTROL FOR STRESS PERIOD   49   TIME STEP   10
 
 SOLVING FOR HEAD 
                                                   Max.-Head-Change                         Max.-Flux-Residual
  Residual-Control   Outer-Iter.   Inner-Iter.     Column Row Layer    Maximum-Head-Change  Column Row Layer    Maximum-Flux-Residual          L2-NORM 
          0                 1           2             4    7     1       0.2034236274E-01       4    7    1         0.1069878509E+01      0.2323622570E+01
          0                 2           2             4    7     1      -0.1978766113E-02       4    7    1        -0.1069884526E+00      0.2323621360E+00
          0                 3           2             4    7     1       0.1347465492E-03       4    7    1         0.7489189228E-02      0.1626530681E-01
          0                 4           1             4    7     1      -0.5361691520E-05       4    7    1        -0.3063082891E-03      0.6652510665E-03

    ------------------------------------------------
       NWT REQUIRED            4 OUTER ITERATIONS 
       AND A TOTAL OF          7 INNER ITERATIONS.
    ------------------------------------------------

 NO OUTPUT CONTROL FOR STRESS PERIOD   49   TIME STEP   11
 
 SOLVING FOR HEAD 
                                                   Max.-Head-Change                         Max.-Flux-Residual
  Residual-Control   Outer-Iter.   Inner-Iter.     Column Row Layer    Maximum-Head-Change  Column Row Layer    Maximum-Flux-Residual          L2-NORM 
          0                 1           2             4    7     1       0.2009780273E-01       4    7    1         0.1056949961E+01      0.2300961918E+01
          0                 2           2             4    7     1      -0.1954976871E-02       4    7    1        -0.1056955829E+00      0.2300960739E+00
          0                 3           2             4    7     1       0.1331265924E-03       4    7    1         0.7398688457E-02      0.1610667440E-01
          0                 4           1             4    7     1      -0.5297232267E-05       4    7    1        -0.3026068048E-03      0.6587552115E-03

    ------------------------------------------------
       NWT REQUIRED            4 OUTER ITERATIONS 
       AND A TOTAL OF          7 INNER ITERATIONS.
    ------------------------------------------------

 NO OUTPUT CONTROL FOR STRESS PERIOD   49   TIME STEP   12
 
 SOLVING FOR HEAD 
                                                   Max.-Head-Change                         Max.-Flux-Residual
  Residual-Control   Outer-Iter.   Inner-Iter.     Column Row Layer    Maximum-Head-Change  Column Row Layer    Maximum-Flux-Residual          L2-NORM 
          0                 1           2             4    7     1       0.1985738292E-01       4    7    1         0.1044240586E+01      0.2278685132E+01
          0                 2           2             4    7     1      -0.1931590364E-02       4    7    1        -0.1044246308E+00      0.2278683870E+00
          0                 3           2             4    7     1       0.1315340598E-03       4    7    1         0.7309721908E-02      0.1595073332E-01
          0                 4           1             4    7     1      -0.5233863733E-05       4    7    1        -0.2989680570E-03      0.6523906848E-03

    ------------------------------------------------
       NWT REQUIRED            4 OUTER ITERATIONS 
       AND A TOTAL OF          7 INNER ITERATIONS.
    ------------------------------------------------

 NO OUTPUT CONTROL FOR STRESS PERIOD   49   TIME STEP   13
 
 SOLVING FOR HEAD 
                                                   Max.-Head-Change                         Max.-Flux-Residual
  Residual-Control   Outer-Iter.   Inner-Iter.     Column Row Layer    Maximum-Head-Change  Column Row Layer    Maximum-Flux-Residual          L2-NORM 
          0                 1           2             4    7     1       0.1962115023E-01       4    7    1         0.1031753178E+01      0.2256772700E+01
          0                 2           2             4    7     1      -0.1908611156E-02       4    7    1        -0.1031758759E+00      0.2256771927E+00
          0                 3           2             4    7     1       0.1299692631E-03       4    7    1         0.7222309156E-02      0.1579734842E-01
          0                 4           1             4    7     1      -0.5171599043E-05       4    7    1        -0.2953928799E-03      0.6461029959E-03

    ------------------------------------------------
       NWT REQUIRED            4 OUTER ITERATIONS 
       AND A TOTAL OF          7 INNER ITERATIONS.
    ------------------------------------------------

 NO OUTPUT CONTROL FOR STRESS PERIOD   49   TIME STEP   14
 
 SOLVING FOR HEAD 
                                                   Max.-Head-Change                         Max.-Flux-Residual
  Residual-Control   Outer-Iter.   Inner-Iter.     Column Row Layer    Maximum-Head-Change  Column Row Layer    Maximum-Flux-Residual          L2-NORM 
          0                 1           2             4    7     1       0.1938888093E-01       4    7    1         0.1019475561E+01      0.2235231015E+01
          0                 2           2             4    7     1      -0.1886017483E-02       4    7    1        -0.1019481004E+00      0.2235229913E+00
          0                 3           2             4    7     1       0.1284307201E-03       4    7    1         0.7136364982E-02      0.1564654604E-01
          0                 4           1             4    7     1      -0.5110378905E-05       4    7    1        -0.2918777650E-03      0.6399403410E-03

    ------------------------------------------------
       NWT REQUIRED            4 OUTER ITERATIONS 
       AND A TOTAL OF          7 INNER ITERATIONS.
    ------------------------------------------------

 NO OUTPUT CONTROL FOR STRESS PERIOD   49   TIME STEP   15
 
 SOLVING FOR HEAD 
                                                   Max.-Head-Change                         Max.-Flux-Residual
  Residual-Control   Outer-Iter.   Inner-Iter.     Column Row Layer    Maximum-Head-Change  Column Row Layer    Maximum-Flux-Residual          L2-NORM 
          0                 1           2             4    7     1       0.1916062504E-01       4    7    1         0.1007410744E+01      0.2214038036E+01
          0                 2           2             4    7     1      -0.1863814210E-02       4    7    1        -0.1007416053E+00      0.2214036851E+00
          0                 3           2             4    7     1       0.1269187611E-03       4    7    1         0.7051910407E-02      0.1549820950E-01
          0                 4           1             4    7     1      -0.5050216675E-05       4    7    1        -0.2884235528E-03      0.6338763507E-03

    ------------------------------------------------
       NWT REQUIRED            4 OUTER ITERATIONS 
       AND A TOTAL OF          7 INNER ITERATIONS.
    ------------------------------------------------

 NO OUTPUT CONTROL FOR STRESS PERIOD   49   TIME STEP   16
 
 SOLVING FOR HEAD 
                                                   Max.-Head-Change                         Max.-Flux-Residual
  Residual-Control   Outer-Iter.   Inner-Iter.     Column Row Layer    Maximum-Head-Change  Column Row Layer    Maximum-Flux-Residual          L2-NORM 
          0                 1           2             4    7     1       0.1893629707E-01       4    7    1         0.9955540171E+00      0.2193196393E+01
          0                 2           2             4    7     1      -0.1841993022E-02       4    7    1        -0.9955591961E-01      0.2193195279E+00
          0                 3           1             4    7     1       0.1254328243E-03       4    7    1         0.6968912479E-02      0.1535232456E-01
          0                 4           1             4    7     1      -0.4991093472E-05       4    7    1        -0.2850289529E-03      0.6279094672E-03

    ------------------------------------------------
       NWT REQUIRED            4 OUTER ITERATIONS 
       AND A TOTAL OF          6 INNER ITERATIONS.
    ------------------------------------------------

 NO OUTPUT CONTROL FOR STRESS PERIOD   49   TIME STEP   17
 
 SOLVING FOR HEAD 
                                                   Max.-Head-Change                         Max.-Flux-Residual
  Residual-Control   Outer-Iter.   Inner-Iter.     Column Row Layer    Maximum-Head-Change  Column Row Layer    Maximum-Flux-Residual          L2-NORM 
          0                 1           2             4    7     1       0.1871567350E-01       4    7    1         0.9838936402E+00      0.2172689763E+01
          0                 2           2             4    7     1      -0.1820532178E-02       4    7    1        -0.9838986924E-01      0.2172688673E+00
          0                 3           1             4    7     1       0.1239714220E-03       4    7    1         0.6887289042E-02      0.1520879393E-01
          0                 4           1             4    7     1      -0.4932942521E-05       4    7    1        -0.2816905294E-03      0.6221221885E-03

    ------------------------------------------------
       NWT REQUIRED            4 OUTER ITERATIONS 
       AND A TOTAL OF          6 INNER ITERATIONS.
    ------------------------------------------------

 NO OUTPUT CONTROL FOR STRESS PERIOD   49   TIME STEP   18
 
 SOLVING FOR HEAD 
                                                   Max.-Head-Change                         Max.-Flux-Residual
  Residual-Control   Outer-Iter.   Inner-Iter.     Column Row Layer    Maximum-Head-Change  Column Row Layer    Maximum-Flux-Residual          L2-NORM 
          0                 1           2             4    7     1       0.1849868149E-01       4    7    1         0.9724253308E+00      0.2152512537E+01
          0                 2           2             4    7     1      -0.1799424590E-02       4    7    1        -0.9724302598E-01      0.2152511345E+00
          0                 3           1             4    7     1       0.1225340754E-03       4    7    1         0.6807010099E-02      0.1506752982E-01
          0                 4           1             4    7     1      -0.4875749086E-05       4    7    1        -0.2784071260E-03      0.6162610514E-03

    ------------------------------------------------
       NWT REQUIRED            4 OUTER ITERATIONS 
       AND A TOTAL OF          6 INNER ITERATIONS.
    ------------------------------------------------

 NO OUTPUT CONTROL FOR STRESS PERIOD   49   TIME STEP   19
 
 SOLVING FOR HEAD 
                                                   Max.-Head-Change                         Max.-Flux-Residual
  Residual-Control   Outer-Iter.   Inner-Iter.     Column Row Layer    Maximum-Head-Change  Column Row Layer    Maximum-Flux-Residual          L2-NORM 
          0                 1           2             4    7     1       0.1828551078E-01       4    7    1         0.9611599247E+00      0.2132668167E+01
          0                 2           2             4    7     1      -0.1778688714E-02       4    7    1        -0.9611647338E-01      0.2132666730E+00
          0                 3           1             4    7     1       0.1211220410E-03       4    7    1         0.6728151498E-02      0.1492860036E-01
          0                 4           1             4    7     1      -0.4819562903E-05       4    7    1        -0.2751818035E-03      0.6105789776E-03

    ------------------------------------------------
       NWT REQUIRED            4 OUTER ITERATIONS 
       AND A TOTAL OF          6 INNER ITERATIONS.
    ------------------------------------------------

 NO OUTPUT CONTROL FOR STRESS PERIOD   49   TIME STEP   20
 
 SOLVING FOR HEAD 
                                                   Max.-Head-Change                         Max.-Flux-Residual
  Residual-Control   Outer-Iter.   Inner-Iter.     Column Row Layer    Maximum-Head-Change  Column Row Layer    Maximum-Flux-Residual          L2-NORM 
          0                 1           2             4    7     1       0.1807580974E-01       4    7    1         0.9500780337E+00      0.2113137069E+01
          0                 2           2             4    7     1      -0.1758290349E-02       4    7    1        -0.9500827262E-01      0.2113135818E+00
          0                 3           1             4    7     1       0.1197329895E-03       4    7    1         0.6650577528E-02      0.1479190270E-01
          0                 4           1             4    7     1      -0.4764291063E-05       4    7    1        -0.2720090110E-03      0.6049905830E-03

    ------------------------------------------------
       NWT REQUIRED            4 OUTER ITERATIONS 
       AND A TOTAL OF          6 INNER ITERATIONS.
    ------------------------------------------------

 NO OUTPUT CONTROL FOR STRESS PERIOD   49   TIME STEP   21
 
 SOLVING FOR HEAD 
                                                   Max.-Head-Change                         Max.-Flux-Residual
  Residual-Control   Outer-Iter.   Inner-Iter.     Column Row Layer    Maximum-Head-Change  Column Row Layer    Maximum-Flux-Residual          L2-NORM 
          0                 1           2             4    7     1       0.1786976876E-01       4    7    1         0.9391906542E+00      0.2093913632E+01
          0                 2           2             4    7     1      -0.1738248013E-02       4    7    1        -0.9391952333E-01      0.2093912331E+00
          0                 3           1             4    7     1       0.1183681823E-03       4    7    1         0.6574365143E-02      0.1465734206E-01
          0                 4           1             4    7     1      -0.4709984222E-05       4    7    1        -0.2688919246E-03      0.5994787374E-03

    ------------------------------------------------
       NWT REQUIRED            4 OUTER ITERATIONS 
       AND A TOTAL OF          6 INNER ITERATIONS.
    ------------------------------------------------

 NO OUTPUT CONTROL FOR STRESS PERIOD   49   TIME STEP   22
 
 SOLVING FOR HEAD 
                                                   Max.-Head-Change                         Max.-Flux-Residual
  Residual-Control   Outer-Iter.   Inner-Iter.     Column Row Layer    Maximum-Head-Change  Column Row Layer    Maximum-Flux-Residual          L2-NORM 
          0                 1           2             4    7     1       0.1766704405E-01       4    7    1         0.9284784291E+00      0.2075001409E+01
          0                 2           2             4    7     1      -0.1718528263E-02       4    7    1        -0.9284828981E-01      0.2075000081E+00
          0                 3           1             4    7     1       0.1170253422E-03       4    7    1         0.6499378866E-02      0.1452496620E-01
          0                 4           1             4    7     1      -0.4656551431E-05       4    7    1        -0.2658249978E-03      0.5941932337E-03

    ------------------------------------------------
       NWT REQUIRED            4 OUTER ITERATIONS 
       AND A TOTAL OF          6 INNER ITERATIONS.
    ------------------------------------------------

 NO OUTPUT CONTROL FOR STRESS PERIOD   49   TIME STEP   23
 
 SOLVING FOR HEAD 
                                                   Max.-Head-Change                         Max.-Flux-Residual
  Residual-Control   Outer-Iter.   Inner-Iter.     Column Row Layer    Maximum-Head-Change  Column Row Layer    Maximum-Flux-Residual          L2-NORM 
          0                 1           2             4    7     1       0.1746769605E-01       4    7    1         0.9179454542E+00      0.2056381267E+01
          0                 2           2             4    7     1      -0.1699136979E-02       4    7    1        -0.9179498157E-01      0.2056379856E+00
          0                 3           1             4    7     1       0.1157048691E-03       4    7    1         0.6425647362E-02      0.1439461087E-01
          0                 4           1             4    7     1      -0.4604008576E-05       4    7    1        -0.2628093641E-03      0.5887430661E-03

    ------------------------------------------------
       NWT REQUIRED            4 OUTER ITERATIONS 
       AND A TOTAL OF          6 INNER ITERATIONS.
    ------------------------------------------------

 NO OUTPUT CONTROL FOR STRESS PERIOD   49   TIME STEP   24
 
 SOLVING FOR HEAD 
                                                   Max.-Head-Change                         Max.-Flux-Residual
  Residual-Control   Outer-Iter.   Inner-Iter.     Column Row Layer    Maximum-Head-Change  Column Row Layer    Maximum-Flux-Residual          L2-NORM 
          0                 1           2             4    7     1       0.1727165162E-01       4    7    1         0.9075875570E+00      0.2038055325E+01
          0                 2           2             4    7     1      -0.1680067048E-02       4    7    1        -0.9075918139E-01      0.2038053916E+00
          0                 3           1             4    7     1       0.1144062792E-03       4    7    1         0.6353141423E-02      0.1426634139E-01
          0                 4           1             4    7     1      -0.4552336545E-05       4    7    1        -0.2598438746E-03      0.5834920630E-03

    ------------------------------------------------
       NWT REQUIRED            4 OUTER ITERATIONS 
       AND A TOTAL OF          6 INNER ITERATIONS.
    ------------------------------------------------

 NO OUTPUT CONTROL FOR STRESS PERIOD   49   TIME STEP   25
 
 SOLVING FOR HEAD 
                                                   Max.-Head-Change                         Max.-Flux-Residual
  Residual-Control   Outer-Iter.   Inner-Iter.     Column Row Layer    Maximum-Head-Change  Column Row Layer    Maximum-Flux-Residual          L2-NORM 
          0                 1           2             4    7     1       0.1707884337E-01       4    7    1         0.8974009448E+00      0.2020018258E+01
          0                 2           2             4    7     1      -0.1661311911E-02       4    7    1        -0.8974051001E-01      0.2020016777E+00
          0                 3           1             4    7     1       0.1131291252E-03       4    7    1         0.6281834490E-02      0.1414009105E-01
          0                 4           1             4    7     1      -0.4501517150E-05       4    7    1        -0.2569274052E-03      0.5783348981E-03

    ------------------------------------------------
       NWT REQUIRED            4 OUTER ITERATIONS 
       AND A TOTAL OF          6 INNER ITERATIONS.
    ------------------------------------------------

 NO OUTPUT CONTROL FOR STRESS PERIOD   49   TIME STEP   26
 
 SOLVING FOR HEAD 
                                                   Max.-Head-Change                         Max.-Flux-Residual
  Residual-Control   Outer-Iter.   Inner-Iter.     Column Row Layer    Maximum-Head-Change  Column Row Layer    Maximum-Flux-Residual          L2-NORM 
          0                 1           2             4    7     1       0.1688844599E-01       4    7    1         0.8873894319E+00      0.2011463360E+01
          0                 2           2             4    7     1      -0.1642791299E-02       4    7    1        -0.8873934996E-01      0.2011013970E+00
          0                 3           1             4    7     1       0.1118679399E-03       4    7    1         0.6211753337E-02      0.1407346676E-01
          0                 4           1             4    7     1      -0.4451331533E-05       4    7    1        -0.2540610842E-03      0.5753536825E-03

    ------------------------------------------------
       NWT REQUIRED            4 OUTER ITERATIONS 
       AND A TOTAL OF          6 INNER ITERATIONS.
    ------------------------------------------------

 NO OUTPUT CONTROL FOR STRESS PERIOD   49   TIME STEP   27
 
 SOLVING FOR HEAD 
                                                   Max.-Head-Change                         Max.-Flux-Residual
  Residual-Control   Outer-Iter.   Inner-Iter.     Column Row Layer    Maximum-Head-Change  Column Row Layer    Maximum-Flux-Residual          L2-NORM 
          0                 1           2             4    7     1       0.1670106714E-01       4    7    1         0.8774883013E+00      0.1985125921E+01
          0                 2           2             4    7     1      -0.1624564311E-02       4    7    1        -0.8774922716E-01      0.2007867587E+00
          0                 3           1             4    7     1       0.1106267520E-03       4    7    1         0.6142444803E-02      0.1405508854E-01
          0                 4           1             4    7     1      -0.4401944901E-05       4    7    1        -0.2512263479E-03      0.5748539719E-03

    ------------------------------------------------
       NWT REQUIRED            4 OUTER ITERATIONS 
       AND A TOTAL OF          6 INNER ITERATIONS.
    ------------------------------------------------

 NO OUTPUT CONTROL FOR STRESS PERIOD   49   TIME STEP   28
 
 SOLVING FOR HEAD 
                                                   Max.-Head-Change                         Max.-Flux-Residual
  Residual-Control   Outer-Iter.   Inner-Iter.     Column Row Layer    Maximum-Head-Change  Column Row Layer    Maximum-Flux-Residual          L2-NORM 
          0                 1           2             4    7     1       0.1651691468E-01       4    7    1         0.8677582943E+00      0.1967989759E+01
          0                 2           2             4    7     1      -0.1606703654E-02       4    7    1        -0.8677621701E-01      0.1968739489E+00
          0                 3           1             4    7     1       0.1094105095E-03       4    7    1         0.6074334156E-02      0.1378111936E-01
          0                 4           1             4    7     1      -0.4353550208E-05       4    7    1        -0.2484406380E-03      0.5636443069E-03

    ------------------------------------------------
       NWT REQUIRED            4 OUTER ITERATIONS 
       AND A TOTAL OF          6 INNER ITERATIONS.
    ------------------------------------------------

 NO OUTPUT CONTROL FOR STRESS PERIOD   49   TIME STEP   29
 
 SOLVING FOR HEAD 
                                                   Max.-Head-Change                         Max.-Flux-Residual
  Residual-Control   Outer-Iter.   Inner-Iter.     Column Row Layer    Maximum-Head-Change  Column Row Layer    Maximum-Flux-Residual          L2-NORM 
          0                 1           2             4    7     1       0.1633560112E-01       4    7    1         0.8581854641E+00      0.1950974347E+01
          0                 2           2             4    7     1      -0.1589014172E-02       4    7    1        -0.8581892505E-01      0.1950971550E+00
          0                 3           1             4    7     1       0.1082059221E-03       4    7    1         0.6007323763E-02      0.1365678477E-01
          0                 4           1             4    7     1      -0.4305618213E-05       4    7    1        -0.2456998945E-03      0.5589073120E-03

    ------------------------------------------------
       NWT REQUIRED            4 OUTER ITERATIONS 
       AND A TOTAL OF          6 INNER ITERATIONS.
    ------------------------------------------------

 NO OUTPUT CONTROL FOR STRESS PERIOD   49   TIME STEP   30



 STREAM LISTING     PERIOD     49   STEP       30

 LAYER ROW COL. STREAM  RCH.  FLOW INTO     FLOW TO   FLOW OUT OF   OVRLND.     DIRECT     STREAM       STREAM     STREAM     STREAM   STREAMBED  STREAMBED
                SEG.NO.  NO.  STRM. RCH.    AQUIFER    STRM. RCH.    RUNOFF     PRECIP       ET          HEAD       DEPTH      WIDTH   CONDCTNC.   GRADIENT

   1    1    1     1     1    7.1250E+00  1.2038E-01   7.0046E+00  0.000E+00  0.000E+00  0.000E+00  1.09385E+03  8.024E-01  7.035E+00  3.166E-02  1.267E+00
   1    2    2     1     2    7.0046E+00  1.8492E-01   6.8197E+00  0.000E+00  0.000E+00  0.000E+00  1.08886E+03  7.976E-01  6.956E+00  4.869E-02  1.266E+00
   1    3    3     1     3    6.8197E+00  1.5635E-01   6.6634E+00  0.000E+00  0.000E+00  0.000E+00  1.08321E+03  7.929E-01  6.870E+00  4.122E-02  1.264E+00
   1    3    4     1     4    6.6634E+00  1.4286E-01   6.5205E+00  0.000E+00  0.000E+00  0.000E+00  1.07820E+03  7.886E-01  6.794E+00  3.771E-02  1.263E+00
   1    4    5     2     1    4.5205E+00  2.6715E-01   4.2533E+00  0.000E+00  0.000E+00  0.000E+00  1.07236E+03  4.251E-01  1.200E+01  7.800E-02  1.142E+00
   1    5    6     2     2    4.2533E+00  2.0467E-01   4.0487E+00  0.000E+00  0.000E+00  0.000E+00  1.06692E+03  4.112E-01  1.200E+01  6.000E-02  1.137E+00
   1    6    6     2     3    4.0487E+00  2.0394E-01   3.8447E+00  0.000E+00  0.000E+00  0.000E+00  1.06219E+03  3.989E-01  1.200E+01  6.000E-02  1.133E+00
   1    7    6     2     4    3.8447E+00  2.0319E-01   3.6416E+00  0.000E+00  0.000E+00  0.000E+00  1.05746E+03  3.864E-01  1.200E+01  6.000E-02  1.129E+00
   1    8    6     2     5    3.6416E+00  2.0242E-01   3.4391E+00  0.000E+00  0.000E+00  0.000E+00  1.05273E+03  3.737E-01  1.200E+01  6.000E-02  1.125E+00
   1    3    5     3     1    2.0000E+00  2.8252E-01   1.7175E+00  0.000E+00  0.000E+00  0.000E+00  1.07555E+03  1.909E+00  9.636E+00  7.227E-02  1.955E+00
   1    3    6     3     2    1.7175E+00  2.4905E-01   1.4684E+00  0.000E+00  0.000E+00  0.000E+00  1.07264E+03  1.727E+00  8.909E+00  6.682E-02  1.864E+00
   1    3    7     3     3    1.4684E+00  1.9718E-01   1.2712E+00  0.000E+00  0.000E+00  0.000E+00  1.06987E+03  1.555E+00  8.218E+00  5.547E-02  1.777E+00
   1    4    8     3     4    1.2712E+00  2.2567E-01   1.0456E+00  0.000E+00  0.000E+00  0.000E+00  1.06682E+03  1.364E+00  7.455E+00  6.709E-02  1.682E+00
   1    5    8     3     5    1.0456E+00  1.5790E-01   8.8768E-01  0.000E+00  0.000E+00  0.000E+00  1.06362E+03  1.164E+00  6.655E+00  4.991E-02  1.582E+00
   1    6    8     3     6    8.8768E-01  5.5980E-02   8.3170E-01  0.000E+00  0.000E+00  0.000E+00  1.06158E+03  1.036E+00  6.145E+00  1.844E-02  1.518E+00
   1    5   10     4     1    1.0000E+01  9.0919E-02   9.9091E+00  0.000E+00  0.000E+00  0.000E+00  1.07836E+03  6.368E-01  1.000E+01  2.500E-02  1.212E+00
   1    5    9     4     2    9.9091E+00  1.8158E-01   9.7275E+00  0.000E+00  0.000E+00  0.000E+00  1.07154E+03  6.315E-01  1.000E+01  5.000E-02  1.211E+00
   1    6    8     4     3    9.7275E+00  1.2689E-01   9.6006E+00  0.000E+00  0.000E+00  0.000E+00  1.06381E+03  6.256E-01  1.000E+01  3.500E-02  1.209E+00
   1    6    8     5     1    1.0432E+01  2.2686E-01   1.0205E+01  0.000E+00  0.000E+00  0.000E+00  1.05868E+03  6.790E-01  1.542E+01  6.166E-02  1.226E+00
   1    7    7     5     2    1.0205E+01  2.7894E-01   9.9265E+00  0.000E+00  0.000E+00  0.000E+00  1.05417E+03  6.732E-01  1.519E+01  7.594E-02  1.224E+00
   1    8    7     5     3    9.9265E+00  1.9221E-01   9.7343E+00  0.000E+00  0.000E+00  0.000E+00  1.04992E+03  6.676E-01  1.497E+01  5.241E-02  1.223E+00
   1    8    6     5     4    9.7343E+00  1.3577E-01   9.5985E+00  0.000E+00  0.000E+00  0.000E+00  1.04691E+03  6.637E-01  1.482E+01  3.706E-02  1.221E+00
   1    9    6     6     1    1.3038E+01  2.2931E-01   1.2808E+01  0.000E+00  0.000E+00  0.000E+00  1.04355E+03  8.218E-01  1.200E+01  6.000E-02  1.274E+00
   1   10    7     6     2    1.2808E+01  2.2878E-01   1.2580E+01  0.000E+00  0.000E+00  0.000E+00  1.03899E+03  8.131E-01  1.200E+01  6.000E-02  1.271E+00
   1   11    7     6     3    1.2580E+01  2.2826E-01   1.2351E+01  0.000E+00  0.000E+00  0.000E+00  1.03444E+03  8.043E-01  1.200E+01  6.000E-02  1.268E+00
   1   12    7     6     4    1.2351E+01  2.2772E-01   1.2124E+01  0.000E+00  0.000E+00  0.000E+00  1.02989E+03  7.954E-01  1.200E+01  6.000E-02  1.265E+00
   1   13    7     6     5    1.2124E+01  3.2849E-03   1.2120E+01  0.000E+00  0.000E+00  0.000E+00  1.02670E+03  7.909E-01  1.200E+01  2.400E-02  4.562E-02
   1   14    9     7     1    1.5000E+02  1.3955E+00   1.4860E+02  0.000E+00  0.000E+00  0.000E+00  1.03987E+03  2.288E+00  5.529E+01  5.593E-01  8.317E-01
   1   13    8     7     2    1.4860E+02  2.0062E+00   1.4660E+02  0.000E+00  0.000E+00  0.000E+00  1.03478E+03  2.279E+00  5.525E+01  6.147E-01  1.088E+00
   1   13    7     7     3    1.4660E+02  1.7447E+00   1.4485E+02  0.000E+00  0.000E+00  0.000E+00  1.02969E+03  2.268E+00  5.521E+01  5.584E-01  1.042E+00
   1   13    6     8     1    1.5697E+02  1.1162E+00   1.5586E+02  0.000E+00  0.000E+00  0.000E+00  1.02474E+03  2.861E+00  4.149E+01  4.228E-01  8.800E-01
   1   13    5     8     2    1.5586E+02  3.6546E-01   1.5549E+02  0.000E+00  0.000E+00  0.000E+00  1.01848E+03  2.856E+00  4.142E+01  4.221E-01  2.886E-01
   1   13    4     8     3    1.5549E+02 -1.7715E+00   1.5726E+02  0.000E+00  0.000E+00  0.000E+00  1.01224E+03  2.861E+00  4.149E+01  4.228E+00 -1.397E-01
   1   13    3     8     4    1.5726E+02 -3.3153E+00   1.6058E+02  0.000E+00  0.000E+00  0.000E+00  1.00600E+03  2.879E+00  4.174E+01  4.253E+00 -2.598E-01
   1   13    2     8     5    1.6058E+02 -2.4945E+00   1.6307E+02  0.000E+00  0.000E+00  0.000E+00  9.99773E+02  2.898E+00  4.202E+01  4.282E+00 -1.942E-01
   1   13    1     8     6    1.6307E+02 -1.9591E+00   1.6503E+02  0.000E+00  0.000E+00  0.000E+00  9.94788E+02  2.913E+00  4.224E+01  2.583E+00 -2.529E-01
   1    8    6     9     1    0.0000E+00  0.0000E+00   0.0000E+00  0.000E+00  0.000E+00  0.000E+00  1.07875E+03  0.000E+00  4.000E+00  0.000E+00  1.000E+00
   1    8    5     9     2    0.0000E+00  0.0000E+00   0.0000E+00  0.000E+00  0.000E+00  0.000E+00  1.07825E+03  0.000E+00  4.000E+00  0.000E+00  1.000E+00





UNSATURATED ZONE PACKAGE VOLUMETRIC BUDGET FOR  TIME STEP    30 STRESS PERIOD   49
  ------------------------------------------------------------------------------



     CUMULATIVE VOLUMES      L**3       RATES FOR THIS TIME STEP      L**3/T
     ------------------                 ------------------------

           IN:                                      IN:
           ---                                      ---
        INFILTRATION =  1712781743.5139          INFILTRATION =           0.8475

          OUT:                                     OUT:
          ----                                     ----
              UZF ET =  1705432952.5576                UZF ET =           0.7500
        UZF RECHARGE =       73224.0000          UZF RECHARGE =       0.0000E+00

            IN - OUT =     7275566.9562              IN - OUT =       9.7500E-02

          STORAGE:                                 STORAGE:
          --------                                 --------
      STORAGE CHANGE =     7275566.1117        STORAGE CHANGE =       9.7500E-02

 PERCENT DISCREPANCY IS DIFFERENCE BETWEEN IN-OUT MINUS CHANGE IN STORAGE
 DIVIDED BY THE AVERAGE OF IN AND OUT TIMES 100

 PERCENT DISCREPANCY =           0.00     PERCENT DISCREPANCY =           0.00






1
  VOLUMETRIC BUDGET FOR AGRICULTURAL FIELDS AT  END OF TIME STEP   30, STRESS PERIOD  49
  ------------------------------------------------------------------------------

     CUMULATIVE VOLUMES      L**3       RATES FOR THIS TIME STEP      L**3/T
     ------------------                 ------------------------

           IN:                                      IN:
           ---                                      ---
           AG WELLS      =   855545344.0000             AG WELLS      =           0.0000
      DIVERSION SEGMENTS =   750254336.0000        DIVERSION SEGMENTS =           0.0000
           GW IRRIGATION =           0.0000             GW IRRIGATION =           0.0000
           SW IRRIGATION =           0.0000             SW IRRIGATION =           0.0000
        SYSTEM LOSSES GW =           0.0000          SYSTEM LOSSES GW =           0.0000
        SYSTEM LOSSES SW =           0.0000          SYSTEM LOSSES SW =           0.0000

                TOTAL IN =  1605799680.0000                  TOTAL IN =           0.0000

          OUT:                                     OUT:
          ----                                     ----
           AG WELLS      =           0.0000             AG WELLS      =           0.0000
      DIVERSION SEGMENTS =           0.0000        DIVERSION SEGMENTS =           0.0000
           GW IRRIGATION =   855545344.0000             GW IRRIGATION =           0.0000
           SW IRRIGATION =   750267456.0000             SW IRRIGATION =           0.0000
        SYSTEM LOSSES GW =           0.0000          SYSTEM LOSSES GW =           0.0000
        SYSTEM LOSSES SW =           0.0000          SYSTEM LOSSES SW =           0.0000

               TOTAL OUT =  1605812736.0000                 TOTAL OUT =           0.0000

                IN - OUT =      -13056.0000                  IN - OUT =           0.0000

     PERCENT DISCREPANCY =          -0.00         PERCENT DISCREPANCY =           0.00



1
  VOLUMETRIC BUDGET FOR ENTIRE MODEL AT END OF TIME STEP   30, STRESS PERIOD  49
  ------------------------------------------------------------------------------

     CUMULATIVE VOLUMES      L**3       RATES FOR THIS TIME STEP      L**3/T
     ------------------                 ------------------------

           IN:                                      IN:
           ---                                      ---
             STORAGE     =  1233363584.0000               STORAGE     =           4.4708
       CONSTANT HEAD     =           0.0000         CONSTANT HEAD     =           0.0000
     HEAD DEP BOUNDS     =    36457564.0000       HEAD DEP BOUNDS     =           0.2898
      STREAM LEAKAGE     =  1498394752.0000        STREAM LEAKAGE     =          11.6328
        UZF RECHARGE     =       73223.9531          UZF RECHARGE     =           0.0000
               GW ET     =           0.0000                 GW ET     =           0.0000
     SURFACE LEAKAGE     =           0.0000       SURFACE LEAKAGE     =           0.0000
           AG WELLS      =           0.0000             AG WELLS      =           0.0000

                TOTAL IN =  2768289280.0000                  TOTAL IN =          16.3933

          OUT:                                     OUT:
          ----                                     ----
             STORAGE     =   614566336.0000               STORAGE     =           6.5661
       CONSTANT HEAD     =           0.0000         CONSTANT HEAD     =           0.0000
     HEAD DEP BOUNDS     =    36348664.0000       HEAD DEP BOUNDS     =           0.2868
      STREAM LEAKAGE     =  1261844736.0000        STREAM LEAKAGE     =           9.5404
        UZF RECHARGE     =           0.0000          UZF RECHARGE     =           0.0000
               GW ET     =           0.0000                 GW ET     =           0.0000
     SURFACE LEAKAGE     =           0.0000       SURFACE LEAKAGE     =           0.0000
           AG WELLS      =   855545344.0000             AG WELLS      =           0.0000

               TOTAL OUT =  2768305152.0000                 TOTAL OUT =          16.3933

                IN - OUT =      -15872.0000                  IN - OUT =       1.1444E-05

     PERCENT DISCREPANCY =          -0.00         PERCENT DISCREPANCY =           0.00






         TIME SUMMARY AT END OF TIME STEP   30 IN STRESS PERIOD   49
                    SECONDS     MINUTES      HOURS       DAYS        YEARS
                    -----------------------------------------------------------
   TIME STEP LENGTH  87667.      1461.1      24.352      1.0147     2.77799E-03
 STRESS PERIOD TIME 2.63000E+06  43833.      730.56      30.440     8.33397E-02
         TOTAL TIME 1.26325E+08 2.10542E+06  35090.      1462.1      4.0030    
1


 Run end date and time (yyyy/mm/dd hh:mm:ss): 2021/02/26 17:58:55
 Elapsed run time: 5.337 Seconds

