                                  MODFLOW-NWT-SWR1 
      U.S. GEOLOGICAL SURVEY MODULAR FINITE-DIFFERENCE GROUNDWATER-FLOW MODEL
                            VERSION 1.2.0 03/01/2020
                    BASED ON MODFLOW-2005 VERSION 1.12.00 02/03/2017

 LIST FILE: ./output/Agwater1_high.lst
                         UNIT    9

 OPENING ./input/Agwater1.ba6
 FILE TYPE:BAS6   UNIT   75   STATUS:OLD    
 FORMAT:FORMATTED              ACCESS:SEQUENTIAL          

 OPENING ./input/Agwater1.upw
 FILE TYPE:UPW   UNIT    7   STATUS:OLD    
 FORMAT:FORMATTED              ACCESS:SEQUENTIAL          

 OPENING ./input/Agwater1.dis
 FILE TYPE:DIS   UNIT    8   STATUS:OLD    
 FORMAT:FORMATTED              ACCESS:SEQUENTIAL          

 OPENING ./input/Agwater1.nwt
 FILE TYPE:NWT   UNIT   13   STATUS:OLD    
 FORMAT:FORMATTED              ACCESS:SEQUENTIAL          

 OPENING ./input/Agwater1.oc
 FILE TYPE:OC   UNIT   14   STATUS:OLD    
 FORMAT:FORMATTED              ACCESS:SEQUENTIAL          

 OPENING ./input/Agwater1.sfr
 FILE TYPE:SFR   UNIT   15   STATUS:OLD    
 FORMAT:FORMATTED              ACCESS:SEQUENTIAL          

 OPENING ./input/Agwater1.ghb
 FILE TYPE:GHB   UNIT   17   STATUS:OLD    
 FORMAT:FORMATTED              ACCESS:SEQUENTIAL          

 OPENING ./input/Agwater1.uzf
 FILE TYPE:UZF   UNIT   19   STATUS:OLD    
 FORMAT:FORMATTED              ACCESS:SEQUENTIAL          

 OPENING ./input/Agwater1.gag
 FILE TYPE:GAGE   UNIT   32   STATUS:OLD    
 FORMAT:FORMATTED              ACCESS:SEQUENTIAL          

 OPENING ./input/seg1_high.tab
 FILE TYPE:DATA   UNIT   55   STATUS:UNKNOWN
 FORMAT:FORMATTED              ACCESS:SEQUENTIAL          

 OPENING ./input/seg9.tab
 FILE TYPE:DATA   UNIT   56   STATUS:UNKNOWN
 FORMAT:FORMATTED              ACCESS:SEQUENTIAL          

 OPENING ./input/Agwater1.ag
 FILE TYPE:AG   UNIT   57   STATUS:OLD    
 FORMAT:FORMATTED              ACCESS:SEQUENTIAL          

 OPENING ./output/Agwater1_high.hed
 FILE TYPE:DATA   UNIT   62   STATUS:UNKNOWN
 FORMAT:FORMATTED              ACCESS:SEQUENTIAL          

 OPENING ./output/Agwater1gw_high.ts5
 FILE TYPE:DATA   UNIT  105   STATUS:UNKNOWN
 FORMAT:FORMATTED              ACCESS:SEQUENTIAL          

 OPENING ./output/Agwater1SW_high.ts9
 FILE TYPE:DATA   UNIT  107   STATUS:UNKNOWN
 FORMAT:FORMATTED              ACCESS:SEQUENTIAL          

 OPENING ./output/Agwater1SW_ET_high.ts9
 FILE TYPE:DATA   UNIT  108   STATUS:UNKNOWN
 FORMAT:FORMATTED              ACCESS:SEQUENTIAL          

 OPENING ./output/Agwater1_high.uzfot
 FILE TYPE:DATA(BINARY)   UNIT   61   STATUS:UNKNOWN
 FORMAT:BINARY                 ACCESS:SEQUENTIAL          

 OPENING ./output/Agwater1cbc_high.unf
 FILE TYPE:DATA(BINARY)   UNIT  102   STATUS:UNKNOWN
 FORMAT:BINARY                 ACCESS:SEQUENTIAL          

 OPENING ./output/Agwater1_high.uzf1
 FILE TYPE:DATA   UNIT   65   STATUS:UNKNOWN
 FORMAT:FORMATTED              ACCESS:SEQUENTIAL          

 OPENING ./output/Agwater1_high.uzf2
 FILE TYPE:DATA   UNIT   66   STATUS:UNKNOWN
 FORMAT:FORMATTED              ACCESS:SEQUENTIAL          

 OPENING ./output/Agwater1_high.uzf3
 FILE TYPE:DATA   UNIT   67   STATUS:UNKNOWN
 FORMAT:FORMATTED              ACCESS:SEQUENTIAL          

 OPENING ./output/Agwater1_high.uzf4
 FILE TYPE:DATA   UNIT   68   STATUS:UNKNOWN
 FORMAT:FORMATTED              ACCESS:SEQUENTIAL          

 OPENING ./output/Agwater1_high.flw
 FILE TYPE:DATA   UNIT   81   STATUS:UNKNOWN
 FORMAT:FORMATTED              ACCESS:SEQUENTIAL          

 OPENING ./output/Agwater1_high.sg1
 FILE TYPE:DATA   UNIT   83   STATUS:UNKNOWN
 FORMAT:FORMATTED              ACCESS:SEQUENTIAL          

 OPENING ./output/Agwater1_high.sg2
 FILE TYPE:DATA   UNIT   84   STATUS:UNKNOWN
 FORMAT:FORMATTED              ACCESS:SEQUENTIAL          

 OPENING ./output/Agwater1_high.sg3
 FILE TYPE:DATA   UNIT   85   STATUS:UNKNOWN
 FORMAT:FORMATTED              ACCESS:SEQUENTIAL          

 OPENING ./output/Agwater1_high.sg4
 FILE TYPE:DATA   UNIT   86   STATUS:UNKNOWN
 FORMAT:FORMATTED              ACCESS:SEQUENTIAL          

 OPENING ./output/Agwater1_high.sg5
 FILE TYPE:DATA   UNIT   87   STATUS:UNKNOWN
 FORMAT:FORMATTED              ACCESS:SEQUENTIAL          

 OPENING ./output/Agwater1_high.sg6
 FILE TYPE:DATA   UNIT   88   STATUS:UNKNOWN
 FORMAT:FORMATTED              ACCESS:SEQUENTIAL          

 OPENING ./output/Agwater1_high.sg7
 FILE TYPE:DATA   UNIT   89   STATUS:UNKNOWN
 FORMAT:FORMATTED              ACCESS:SEQUENTIAL          

 OPENING ./output/Agwater1_high.sg8
 FILE TYPE:DATA   UNIT   90   STATUS:UNKNOWN
 FORMAT:FORMATTED              ACCESS:SEQUENTIAL          

 OPENING ./output/Agwater1_high.sg9
 FILE TYPE:DATA   UNIT   91   STATUS:UNKNOWN
 FORMAT:FORMATTED              ACCESS:SEQUENTIAL          

 BAS -- BASIC PACKAGE, VERSION 1.1.4, 4/01/2018 INPUT READ FROM UNIT   75
 
 MODFLOW was compiled using mixed precision
 Precision of REAL variables:           6
 Precision of DOUBLE PRECISION variables:          15

 DISCRETIZATION INPUT DATA READ FROM UNIT    8
 #Test problem 2-- Discretization input
 #Example problem using the UZF1 Package
    1 LAYERS        15 ROWS        10 COLUMNS
   49 STRESS PERIOD(S) IN SIMULATION
 MODEL TIME UNIT IS SECONDS
 MODEL LENGTH UNIT IS FEET
  Confining bed flag for each layer:
   0

                     DELR =   5000.00    

                     DELC =   5000.00    



           TOP ELEVATION OF LAYER 1
 READING ON UNIT    8 WITH FORMAT: (10F7.0)            

            1           2           3           4           5           6           7           8           9          10
 ........................................................................................................................
   1    1105.       1105.       0.000       0.000       0.000       0.000       0.000       0.000       0.000       0.000    
   2    1105.       1095.       1105.       0.000       0.000       1100.       1100.       1110.       0.000       0.000    
   3    0.000       1100.       1085.       1080.       1078.       1076.       1073.       1090.       0.000       0.000    
   4    1110.       1100.       1090.       1085.       1076.       1080.       1080.       1070.       1100.       0.000    
   5    1110.       1100.       1085.       1080.       1078.       1074.       1077.       1066.       1075.       1080.    
   6    1105.       1095.       1080.       1077.       1073.       1069.       1070.       1063.       1085.       1095.    
   7    1105.       1090.       1075.       1072.       1070.       1065.       1065.       1069.       1090.       0.000    
   8    0.000       1080.       1070.       1068.       1063.       1060.       1063.       1067.       1090.       0.000    
   9    0.000       1075.       1065.       1062.       1058.       1052.       1055.       1065.       1090.       0.000    
  10    0.000       1070.       1060.       1055.       1046.       1046.       1044.       1060.       1088.       1100.    
  11    0.000       1055.       1050.       1045.       1041.       1042.       1040.       1050.       1075.       0.000    
  12    1027.       1028.       1028.       1032.       1032.       1033.       1032.       1040.       1060.       0.000    
  13    997.0       1004.       1008.       1014.       1020.       1027.       1032.       1038.       1050.       0.000    
  14    0.000       1030.       1040.       1045.       1050.       1050.       1050.       1050.       1044.       0.000    
  15    0.000       0.000       1080.       1080.       1080.       1080.       0.000       0.000       0.000       0.000    



             MODEL LAYER BOTTOM EL. FOR LAYER   1
 READING ON UNIT    8 WITH FORMAT: (10F7.0)            

            1           2           3           4           5           6           7           8           9          10
 ........................................................................................................................
   1    1000.       1000.       0.000       0.000       0.000       0.000       0.000       0.000       0.000       0.000    
   2    1000.       900.0       900.0       0.000       0.000       950.0       950.0       950.0       0.000       0.000    
   3    0.000       850.0       670.0       680.0       680.0       770.0       770.0       890.0       0.000       0.000    
   4    925.0       850.0       650.0       650.0       650.0       680.0       740.0       850.0       950.0       0.000    
   5    925.0       800.0       650.0       600.0       600.0       600.0       650.0       720.0       850.0       950.0    
   6    925.0       800.0       650.0       600.0       550.0       600.0       650.0       720.0       850.0       970.0    
   7    925.0       800.0       650.0       600.0       550.0       600.0       650.0       720.0       950.0       0.000    
   8    0.000       850.0       700.0       650.0       570.0       600.0       700.0       850.0       950.0       0.000    
   9    0.000       850.0       700.0       650.0       540.0       580.0       700.0       850.0       950.0       0.000    
  10    0.000       850.0       700.0       630.0       530.0       580.0       650.0       800.0       900.0       950.0    
  11    0.000       850.0       700.0       620.0       580.0       620.0       700.0       800.0       900.0       0.000    
  12    900.0       830.0       710.0       640.0       600.0       650.0       700.0       800.0       900.0       0.000    
  13    900.0       810.0       750.0       700.0       650.0       700.0       750.0       800.0       900.0       0.000    
  14    0.000       950.0       850.0       850.0       850.0       850.0       850.0       850.0       850.0       0.000    
  15    0.000       0.000       950.0       950.0       950.0       950.0       0.000       0.000       0.000       0.000    


 STRESS PERIOD     LENGTH       TIME STEPS     MULTIPLIER FOR DELT    SS FLAG
 ----------------------------------------------------------------------------
        1         86400.00          1                    1.000         SS
        2         2630000.         30                    1.000         TR
        3         2630000.         30                    1.000         TR
        4         2630000.         30                    1.000         TR
        5         2630000.         30                    1.000         TR
        6         2630000.         30                    1.000         TR
        7         2630000.         30                    1.000         TR
        8         2630000.         30                    1.000         TR
        9         2630000.         30                    1.000         TR
       10         2630000.         30                    1.000         TR
       11         2630000.         30                    1.000         TR
       12         2630000.         30                    1.000         TR
       13         2630000.         30                    1.000         TR
       14         2630000.         30                    1.000         TR
       15         2630000.         30                    1.000         TR
       16         2630000.         30                    1.000         TR
       17         2630000.         30                    1.000         TR
       18         2630000.         30                    1.000         TR
       19         2630000.         30                    1.000         TR
       20         2630000.         30                    1.000         TR
       21         2630000.         30                    1.000         TR
       22         2630000.         30                    1.000         TR
       23         2630000.         30                    1.000         TR
       24         2630000.         30                    1.000         TR
       25         2630000.         30                    1.000         TR
       26         2630000.         30                    1.000         TR
       27         2630000.         30                    1.000         TR
       28         2630000.         30                    1.000         TR
       29         2630000.         30                    1.000         TR
       30         2630000.         30                    1.000         TR
       31         2630000.         30                    1.000         TR
       32         2630000.         30                    1.000         TR
       33         2630000.         30                    1.000         TR
       34         2630000.         30                    1.000         TR
       35         2630000.         30                    1.000         TR
       36         2630000.         30                    1.000         TR
       37         2630000.         30                    1.000         TR
       38         2630000.         30                    1.000         TR
       39         2630000.         30                    1.000         TR
       40         2630000.         30                    1.000         TR
       41         2630000.         30                    1.000         TR
       42         2630000.         30                    1.000         TR
       43         2630000.         30                    1.000         TR
       44         2630000.         30                    1.000         TR
       45         2630000.         30                    1.000         TR
       46         2630000.         30                    1.000         TR
       47         2630000.         30                    1.000         TR
       48         2630000.         30                    1.000         TR
       49         2630000.         30                    1.000         TR

 COMBINED STEADY-STATE AND TRANSIENT SIMULATION



 
 #Test Simulation 2-- Example problem using the UZF1 Package                     
 #Modified from example Problem 1 of SFR1 documentation report                   
 THE FREE FORMAT OPTION HAS BEEN SELECTED



                     BOUNDARY ARRAY FOR LAYER   1
 READING ON UNIT   75 WITH FORMAT: (20I4)              

                1           2           3           4           5           6           7           8           9          10
 ............................................................................................................................
   1            1           1           0           0           0           0           0           0           0           0
   2            1           1           1           0           0           1           1           1           0           0
   3            0           1           1           1           1           1           1           1           0           0
   4            1           1           1           1           1           1           1           1           1           0
   5            1           1           1           1           1           1           1           1           1           1
   6            1           1           1           1           1           1           1           1           1           1
   7            1           1           1           1           1           1           1           1           1           0
   8            0           1           1           1           1           1           1           1           1           0
   9            0           1           1           1           1           1           1           1           1           0
  10            0           1           1           1           1           1           1           1           1           1
  11            0           1           1           1           1           1           1           1           1           0
  12            1           1           1           1           1           1           1           1           1           0
  13            1           1           1           1           1           1           1           1           1           0
  14            0           1           1           1           1           1           1           1           1           0
  15            0           0           1           1           1           1           0           0           0           0

 AQUIFER HEAD WILL BE SET TO   6999.0     AT ALL NO-FLOW NODES (IBOUND=0).



                       INITIAL HEAD FOR LAYER   1
 READING ON UNIT   75 WITH FORMAT: (10F8.0)            

            1           2           3           4           5           6           7           8           9          10
 ........................................................................................................................
   1    1093.       1089.       6999.       6999.       6999.       6999.       6999.       6999.       6999.       6999.    
   2    1090.       1087.       1081.       6999.       6999.       1072.       1071.       1071.       6999.       6999.    
   3    6999.       1079.       1078.       1074.       1072.       1071.       1069.       1068.       6999.       6999.    
   4    1069.       1071.       1070.       1067.       1065.       1064.       1064.       1066.       1066.       6999.    
   5    1065.       1064.       1063.       1062.       1061.       1061.       1060.       1062.       1066.       1068.    
   6    1060.       1058.       1057.       1056.       1056.       1057.       1057.       1059.       1062.       1066.    
   7    1056.       1053.       1052.       1051.       1051.       1052.       1053.       1055.       1056.       6999.    
   8    6999.       1046.       1046.       1046.       1046.       1046.       1048.       1050.       1050.       6999.    
   9    6999.       1039.       1039.       1039.       1040.       1041.       1042.       1043.       1044.       6999.    
  10    6999.       1031.       1032.       1033.       1034.       1035.       1037.       1038.       1039.       1042.    
  11    6999.       1021.       1023.       1027.       1029.       1030.       1032.       1034.       1036.       6999.    
  12    1001.       1009.       1015.       1020.       1023.       1026.       1029.       1030.       1034.       6999.    
  13    994.5      1000.0       1007.       1013.       1019.       1024.       1029.       1034.       1036.       6999.    
  14    6999.       1004.       1009.       1014.       1019.       1024.       1029.       1035.       1039.       6999.    
  15    6999.       6999.       1012.       1015.       1019.       1022.       6999.       6999.       6999.       6999.    

 OUTPUT CONTROL IS SPECIFIED ONLY AT TIME STEPS FOR WHICH OUTPUT IS DESIRED
 HEADS WILL BE SAVED WITH FORMAT: (10F10.3)           
 SAVED HEADS WILL BE LABELED
 COMPACT CELL-BY-CELL BUDGET FILES WILL BE WRITTEN
 HEAD PRINT FORMAT CODE IS   4    DRAWDOWN PRINT FORMAT CODE IS   0
 HEADS WILL BE SAVED ON UNIT   62    DRAWDOWNS WILL BE SAVED ON UNIT    0
 # NWT Input File
 # Test Problem 3 for MODFLOW-NWT
 #HEADTOL  FLUXTOL MAXITEROUT THICKFACT LINMETH IPRNWT IBOTAV OPTIONS DBDREDUCE DBDINCREASE DBDGAMMA MOMFACT BACKFLAG MAXBACKITER BACKTOL BACKREDUCE

 NWT1 -- Newton Solver, VERSION 1.1.4, 4/01/2018
         INPUT READ FROM UNIT 13

 SPECIFIED OPTION:
 SOLVER INPUT VALUES ARE SPECIFIED BY USER
 ***XMD linear solver will be used***
 
   CONVERGENCE CRITERION OF   0.100000E-03 FOR HEAD SOLUTION
   AND A TOLERANCE OF   0.100000E+01 FOR FLOW SOLUTION AND 
   A MAXIMUM OF   500 OUTER ITERATIONS. 


   D-B-D REDUCTION FACTOR OF    0.970000E+00 AND 
   A D-B-D INCREASE FACTOR OF    0.100000E-04 AND 
   A D-B-D RELAXATION OF    0.000000E+00 AND 
   A MOMENTUM FACTOR OF    0.100000E+00 .


 ***BACKTRACKING IS INACTIVE***
 XMD -- LINEAR SOLUTION BY XMD PACKAGE VERSION 1.30
     BY MOTOMU IBARAKI, OHIO STATE UNIVERSITY, COLOMBUS, OH
                 INPUT READ FROM UNIT 13
 ACCELERATION METHOD                    (IACL) =         1
 NODE ORDERING FLAG                   (NORDER) =         0
 LEVEL OF FILL                         (LEVEL) =         7
 MAXIMUM NUMBER OF ORTHOGONALIZATIONS  (NORTH) =         7
 INDEX FOR USING REDUCED SYSTEM      (IREDSYS) =         1
 RESID. REDUCTION CONVERGE CRITERION  (RRCTOL) =  0.000000E+00
 INDEX FOR USING DROP TOLERANCE     (IDROPTOL) =         1
 DROP TOLERANCE VALUE                  (EPSRN) =  0.500000E-02
 CONVERGENCE CRITERIA OF           (HCLOSEXMD) =  0.100000E-03
 MAX. NUMBER OF LINEAR ITERATIONS  (MXITERXMD) =        50


 UPW1 -- UPSTREAM WEIGHTING FLOW PACKAGE, VERSION 1.1.4, 4/01/2018
         INPUT READ FROM UNIT  7

 #Layer-Property Flow Package input for test simulation 2
 CELL-BY-CELL FLOWS WILL BE SAVED ON UNIT  102
 No named parameters

   LAYER FLAGS:
 LAYER       LAYTYP          LAYAVG    CHANI           LAYVKA           LAYWET
 ---------------------------------------------------------------------------
    1             1             0     1.000E+00             0             0

   INTERPRETATION OF LAYER FLAGS:
                        INTERBLOCK     HORIZONTAL    DATA IN
         LAYER TYPE   TRANSMISSIVITY   ANISOTROPY   ARRAY VKA   WETTABILITY
 LAYER   (LAYTYP)        (LAYAVG)      (CHANI)     (LAYVKA)       (LAYWET)
 ---------------------------------------------------------------------------
    1   CONVERTIBLE      HARMONIC     1.000E+00    VERTICAL K  NON-WETTABLE



              HYD. COND. ALONG ROWS FOR LAYER   1
 READING ON UNIT    7 WITH FORMAT: (10F5.0)            

            1           2           3           4           5           6           7           8           9          10
 ........................................................................................................................
   1   2.0000E-03  2.0000E-03   0.000       0.000       0.000       0.000       0.000       0.000       0.000       0.000    
   2   4.0000E-04  2.0000E-03  2.0000E-03   0.000       0.000      4.0000E-04  4.0000E-04  4.0000E-04   0.000       0.000    
   3    0.000      4.0000E-04  2.0000E-03  2.0000E-03  4.0000E-04  4.0000E-04  4.0000E-04  4.0000E-04   0.000       0.000    
   4   4.0000E-04  4.0000E-04  4.0000E-04  2.0000E-03  2.0000E-03  2.0000E-03  4.0000E-04  4.0000E-04  4.0000E-04   0.000    
   5   4.0000E-04  4.0000E-04  4.0000E-04  2.0000E-03  2.0000E-03  2.0000E-03  2.0000E-03  2.0000E-03  2.0000E-03  2.0000E-03
   6   4.0000E-04  4.0000E-04  4.0000E-04  2.0000E-03  2.0000E-03  2.0000E-03  2.0000E-03  2.0000E-03  4.0000E-04  4.0000E-04
   7   4.0000E-04  4.0000E-04  4.0000E-04  2.0000E-03  2.0000E-03  2.0000E-03  2.0000E-03  2.0000E-03  4.0000E-04   0.000    
   8    0.000      4.0000E-04  4.0000E-04  2.0000E-03  2.0000E-03  2.0000E-03  2.0000E-03  4.0000E-04  4.0000E-04   0.000    
   9    0.000      4.0000E-04  4.0000E-04  2.0000E-03  2.0000E-03  2.0000E-03  2.0000E-03  4.0000E-04  4.0000E-04   0.000    
  10    0.000      4.0000E-04  4.0000E-04  2.0000E-03  2.0000E-03  2.0000E-03  2.0000E-03  4.0000E-04  4.0000E-04  4.0000E-04
  11    0.000      4.0000E-04  4.0000E-04  2.0000E-03  2.0000E-03  2.0000E-03  2.0000E-03  4.0000E-04  4.0000E-04   0.000    
  12   4.0000E-04  4.0000E-04  2.0000E-03  2.0000E-03  2.0000E-03  2.0000E-03  2.0000E-03  4.0000E-04  4.0000E-04   0.000    
  13   2.0000E-03  2.0000E-03  2.0000E-03  2.0000E-03  2.0000E-03  2.0000E-03  2.0000E-03  2.0000E-03  2.0000E-03   0.000    
  14    0.000      4.0000E-04  4.0000E-04  4.0000E-04  4.0000E-04  4.0000E-04  4.0000E-04  4.0000E-04  2.0000E-03   0.000    
  15    0.000       0.000      4.0000E-04  4.0000E-04  4.0000E-04  4.0000E-04   0.000       0.000       0.000       0.000    

      VERTICAL HYD. COND. =  1.000000E-06 FOR LAYER   1

         SPECIFIC STORAGE =  1.000000E-06 FOR LAYER   1



                     SPECIFIC YIELD FOR LAYER   1
 READING ON UNIT    7 WITH FORMAT: (10F5.0)            

            1           2           3           4           5           6           7           8           9          10
 ........................................................................................................................
   1   0.2000      0.2000       0.000       0.000       0.000       0.000       0.000       0.000       0.000       0.000    
   2   0.1000      0.2000      0.2000       0.000       0.000      0.1000      0.1000      0.1000       0.000       0.000    
   3    0.000      0.1000      0.2000      0.2000      0.1000      0.1000      0.1000      0.1000       0.000       0.000    
   4   0.1000      0.1000      0.1000      0.2000      0.2000      0.2000      0.1000      0.1000      0.1000       0.000    
   5   0.1000      0.1000      0.1000      0.2000      0.2000      0.2000      0.2000      0.2000      0.2000      0.2000    
   6   0.1000      0.1000      0.1000      0.2000      0.2000      0.2000      0.2000      0.2000      0.1000      0.1000    
   7   0.1000      0.1000      0.1000      0.2000      0.2000      0.2000      0.2000      0.2000      0.1000       0.000    
   8    0.000      0.1000      0.1000      0.2000      0.2000      0.2000      0.2000      0.1000      0.1000       0.000    
   9    0.000      0.1000      0.1000      0.2000      0.2000      0.2000      0.2000      0.1000      0.1000       0.000    
  10    0.000      0.1000      0.1000      0.2000      0.2000      0.2000      0.2000      0.1000      0.1000      0.1000    
  11    0.000      0.1000      0.1000      0.2000      0.2000      0.2000      0.2000      0.1000      0.1000       0.000    
  12   0.1000      0.1000      0.2000      0.2000      0.2000      0.2000      0.2000      0.1000      0.1000       0.000    
  13   0.2000      0.2000      0.2000      0.2000      0.2000      0.2000      0.2000      0.2000      0.2000       0.000    
  14    0.000      0.1000      0.1000      0.1000      0.1000      0.1000      0.1000      0.1000      0.2000       0.000    
  15    0.000       0.000      0.1000      0.1000      0.1000      0.1000       0.000       0.000       0.000       0.000    

 GHB -- GENERAL-HEAD BOUNDARY PACKAGE, VERSION 7, 5/2/2005
         INPUT READ FROM UNIT   17
 No named parameters
 MAXIMUM OF      2 ACTIVE GHB CELLS AT ONE TIME
 CELL-BY-CELL FLOWS WILL BE PRINTED WHEN ICBCFL NOT 0


     0 GHB parameters

 SFR7 -- STREAMFLOW ROUTING PACKAGE, VERSION 1.0.5, 2012-04-05
         INPUT READ FROM UNIT  15
 #SFR2 Package input for Testing supplimental pumping and irrigation
 No named parameters

 PROCESSING SFR2 OPTIONS
 
          2 Specified inflow files will be read with a maximum of       1446 row entries per file
 
Stream loss will be calculated as a factor of the streambed hydraulic conductivity. Multiplication factor is equal to     0.1000000015E+00

 END PROCESSING SFR2 OPTIONS
 


 NUMBER OF STREAM REACHES IS   38

 NUMBER OF STREAM SEGMENTS IS    9

 NUMBER OF STREAM PARAMETERS IS    0

 NUMBER OF STREAM SEGMENTS DEFINED USING PARAMETERS IS              0

 MAXIMUM ERROR FOR STREAM LEAKAGE RATES IS  1.00E-06

 CONSTANT FOR MANNINGS EQUATION IS  1.4860E+00



 STREAM OUTPUT WILL BE WRITTEN TO FILE ON UNIT   81


   STREAM NETWORK DESCRIPTION: 

   LAYER    ROW    COL   SEGMENT   REACH     LENGTH
                          NUMBER   NUMBER    IN CELL        
   --------------------------------------------------
      1      1      1       1        1    4.5000E+03
      1      2      2       1        2    7.0000E+03
      1      3      3       1        3    6.0000E+03
      1      3      4       1        4    5.5500E+03
      1      4      5       2        1    6.5000E+03
      1      5      6       2        2    5.0000E+03
      1      6      6       2        3    5.0000E+03
      1      7      6       2        4    5.0000E+03
      1      8      6       2        5    5.0000E+03
      1      3      5       3        1    5.0000E+03
      1      3      6       3        2    5.0000E+03
      1      3      7       3        3    4.5000E+03
      1      4      8       3        4    6.0000E+03
      1      5      8       3        5    5.0000E+03
      1      6      8       3        6    2.0000E+03
      1      5     10       4        1    2.5000E+03
      1      5      9       4        2    5.0000E+03
      1      6      8       4        3    3.5000E+03
      1      6      8       5        1    4.0000E+03
      1      7      7       5        2    5.0000E+03
      1      8      7       5        3    3.5000E+03
      1      8      6       5        4    2.5000E+03
      1      9      6       6        1    5.0000E+03
      1     10      7       6        2    5.0000E+03
      1     11      7       6        3    5.0000E+03
      1     12      7       6        4    5.0000E+03
      1     13      7       6        5    2.0000E+03
      1     14      9       7        1    5.0000E+03
      1     13      8       7        2    5.5000E+03
      1     13      7       7        3    5.0000E+03
      1     13      6       8        1    5.0000E+03
      1     13      5       8        2    5.0000E+03
      1     13      4       8        3    5.0000E+03
      1     13      3       8        4    5.0000E+03
      1     13      2       8        5    5.0000E+03
      1     13      1       8        6    3.0000E+03
      1      8      6       9        1    3.0000E+03
      1      8      5       9        2    3.0000E+03




 UZF1 -- UNSATURATED FLOW PACKAGE, VERSION 1.5, 09/10/2019
         INPUT READ FROM UNIT 19
 #UZF Package input for test simulation 2
 No named parameters

 PROCESSING UZF OPTIONS
 
 
 INITIAL WATER CONTENT (THTI) WILL BE 
READ FOR THE FIRST SS OR TR STRESS PERIOD
 
 
 RESIDUAL WATER CONTENT (THTR) WILL BE 
READ AND USED FOR THE FIRST TRANSIENT STRESS 
PERIOD
 
 
AIR ENTRY PRESSURE AND ROOT PRESSURE WILL BE 
SPECIFIED BY USER AND UZ ET WILL BE SIMULATED 
AS PRESSURE-HEAD DEPENDENT
 
 
INFILTRATION WILL BE REJECTED USING 
LAND SURFACE K
 
 
HYDRAULIC CONDUCTIVITY OF LAND SURFACE 
WILL BE READ
 

 END PROCESSING UZF OPTIONS



            AREAL EXTENT OF UZ FLOW
 READING ON UNIT   19 WITH FORMAT: (20I4)              

                1           2           3           4           5           6           7           8           9          10
 ............................................................................................................................
   1            1           1           0           0           0           0           0           0           0           0
   2            1           1           1           0           0           1           1           1           0           0
   3            0           1           1           1           1           1           1           1           0           0
   4            1           1           1           1           1           1           1           1           1           0
   5            1           1           1           1           1           1           1           1           1           1
   6            1           1           1           1           1           1           1           1           1           1
   7            1           1           1           1           1           1           1           1           1           0
   8            0           1           1           1           1           1           1           1           1           0
   9            0           1           1           1           1           1           1           1           1           0
  10            0           1           1           1           1           1           1           1           1           1
  11            0           1           1           1           1           1           1           1           1           0
  12            1           1           1           1           1           1           1           1           1           0
  13            1           1           1           1           1           1           1           1           1           0
  14            0           1           1           1           1           1           1           1           1           0
  15            0           0           1           1           1           1           0           0           0           0
 OPTION 1 -- RECHARGE IN UZF TO TOP LAYER ONLY 



            ROUTING OVERLAND RUNOFF
 READING ON UNIT   19 WITH FORMAT: (20I4)              

                1           2           3           4           5           6           7           8           9          10
 ............................................................................................................................
   1            1           1           0           0           0           0           0           0           0           0
   2            1           1           1           0           0           3           3           3           0           0
   3            0           1           1           1           3           3           3           3           0           0
   4            8           8           2           2           2           2           2           3           3           0
   5            8           8           8           8           2           2           2           3           4           4
   6            8           8           8           8           8           2           2           4           4           4
   7            8           8           8           8           8           2           5           5           5           0
   8            0           8           8           8           8           2           5           5           5           0
   9            0           8           8           8           8           6           6           6           6           0
  10            0           8           8           8           8           6           6           6           6           6
  11            0           8           8           8           8           8           6           6           7           0
  12            8           8           8           8           8           8           6           7           7           0
  13            8           8           8           8           8           8           7           7           7           0
  14            0           8           8           8           8           8           7           7           7           0
  15            0           0           8           8           8           8           0           0           0           0



               SATURATED VERTICAL K
 READING ON UNIT   19 WITH FORMAT: (10F4.0)            

            1           2           3           4           5           6           7           8           9          10
 ........................................................................................................................
   1   4.6000E-05  4.6000E-05   0.000       0.000       0.000       0.000       0.000       0.000       0.000       0.000    
   2   4.6000E-05  4.6000E-05  4.6000E-05   0.000       0.000      4.6000E-05  4.6000E-05  4.6000E-05   0.000       0.000    
   3    0.000      4.6000E-05  4.6000E-05  4.6000E-05  4.6000E-05  4.6000E-05  4.6000E-05  4.6000E-05   0.000       0.000    
   4   4.6000E-05  4.6000E-05  4.6000E-05  4.6000E-05  4.6000E-05  4.6000E-05  4.6000E-05  4.6000E-05  4.6000E-05   0.000    
   5   4.6000E-05  4.6000E-05  4.6000E-05  4.6000E-05  4.6000E-05  4.6000E-05  4.6000E-05  4.6000E-05  4.6000E-05  4.6000E-05
   6   4.6000E-05  4.6000E-05  4.6000E-05  4.6000E-05  4.6000E-05  4.6000E-05  4.6000E-05  4.6000E-05  4.6000E-05  4.6000E-05
   7   4.6000E-05  4.6000E-05  4.6000E-05  4.6000E-05  4.6000E-05  4.6000E-05  4.6000E-05  4.6000E-05  4.6000E-05   0.000    
   8    0.000      4.6000E-05  4.6000E-05  4.6000E-05  4.6000E-05  4.6000E-05  4.6000E-05  4.6000E-05  4.6000E-05   0.000    
   9    0.000      4.6000E-05  4.6000E-05  4.6000E-05  4.6000E-05  4.6000E-05  4.6000E-05  4.6000E-05  4.6000E-05   0.000    
  10    0.000      4.6000E-05  4.6000E-05  4.6000E-05  4.6000E-05  4.6000E-05  4.6000E-05  4.6000E-05  4.6000E-05  4.6000E-05
  11    0.000      4.6000E-05  4.6000E-05  4.6000E-05  4.6000E-05  4.6000E-05  4.6000E-05  4.6000E-05  4.6000E-05   0.000    
  12   4.6000E-05  4.6000E-05  4.6000E-05  4.6000E-05  4.6000E-05  4.6000E-05  4.6000E-05  4.6000E-05  4.6000E-05   0.000    
  13   4.6000E-05  4.6000E-05  4.6000E-05  4.6000E-05  4.6000E-05  4.6000E-05  4.6000E-05  4.6000E-05  4.6000E-05   0.000    
  14    0.000      4.6000E-05  4.6000E-05  4.6000E-05  4.6000E-05  4.6000E-05  4.6000E-05  4.6000E-05  4.6000E-05   0.000    
  15    0.000       0.000      4.6000E-05  4.6000E-05  4.6000E-05  4.6000E-05   0.000       0.000       0.000       0.000    



            LAND SURFACE VERTICAL K
 READING ON UNIT   19 WITH FORMAT: (10F4.0)            

            1           2           3           4           5           6           7           8           9          10
 ........................................................................................................................
   1   1.0000E-05  1.0000E-05   0.000       0.000       0.000       0.000       0.000       0.000       0.000       0.000    
   2   1.0000E-05  1.0000E-05  1.0000E-05   0.000       0.000      1.0000E-05  1.0000E-05  1.0000E-05   0.000       0.000    
   3    0.000      1.0000E-05  1.0000E-05  1.0000E-05  1.0000E-05  1.0000E-05  1.0000E-05  1.0000E-05   0.000       0.000    
   4   1.0000E-05  1.0000E-05  1.0000E-05  1.0000E-05  1.0000E-05  1.0000E-05  1.0000E-05  1.0000E-05  1.0000E-05   0.000    
   5   1.0000E-05  1.0000E-05  1.0000E-05  1.0000E-05  1.0000E-05  1.0000E-05  1.0000E-05  1.0000E-05  1.0000E-05  1.0000E-05
   6   1.0000E-05  1.0000E-05  1.0000E-05  1.0000E-05  1.0000E-05  1.0000E-05  1.0000E-05  1.0000E-05  1.0000E-05  1.0000E-05
   7   1.0000E-05  1.0000E-05  1.0000E-05  1.0000E-05  1.0000E-05  1.0000E-05  1.0000E-05  1.0000E-05  1.0000E-05   0.000    
   8    0.000      1.0000E-05  1.0000E-05  1.0000E-05  1.0000E-05  1.0000E-05  1.0000E-05  1.0000E-05  1.0000E-05   0.000    
   9    0.000      1.0000E-05  1.0000E-05  1.0000E-05  1.0000E-05  1.0000E-05  1.0000E-05  1.0000E-05  1.0000E-05   0.000    
  10    0.000      1.0000E-05  1.0000E-05  1.0000E-05  1.0000E-05  1.0000E-05  1.0000E-05  1.0000E-05  1.0000E-05  1.0000E-05
  11    0.000      1.0000E-05  1.0000E-05  1.0000E-05  1.0000E-05  1.0000E-05  1.0000E-05  1.0000E-05  1.0000E-05   0.000    
  12   1.0000E-05  1.0000E-05  1.0000E-05  1.0000E-05  1.0000E-05  1.0000E-05  1.0000E-05  1.0000E-05  1.0000E-05   0.000    
  13   1.0000E-05  1.0000E-05  1.0000E-05  1.0000E-05  1.0000E-05  1.0000E-05  1.0000E-05  1.0000E-05  1.0000E-05   0.000    
  14    0.000      1.0000E-05  1.0000E-05  1.0000E-05  1.0000E-05  1.0000E-05  1.0000E-05  1.0000E-05  1.0000E-05   0.000    
  15    0.000       0.000      1.0000E-05  1.0000E-05  1.0000E-05  1.0000E-05   0.000       0.000       0.000       0.000    

     BROOKS-COREY EPSILON =   7.50000    

  SATURATED WATER CONTENT =  0.380000    

   RESIDUAL WATER CONTENT =  0.200000    

    INITIAL WATER CONTENT =  0.200000    

UNSATURATED FLOW RESULTS WILL BE PRINTED TO SEPARATE FILES FOR SELECTED MODEL CELLS, AND TIME STEPS AS DEFINED BY OUTPUT CONTROL PACKAGE 

SELECTED MODEL CELLS ARE: 
 ROW NUMBER  COLUMN NUMBER  FORTRAN UNIT NUMBER  OUTPUT OPTION


       6             4                 65                 1
       6             5                 66                 2
       8             4                 67                 3
       0             0                 68                 4



   9 GAGING STATIONS WERE SPECIFIED.
     (Lakes are identified by a negative value of the Lake Number)
     RECORDS WILL BE WRITTEN TO SEPARATE OUTPUT FILES REPRESENTED BY FOLLOWING UNIT NUMBERS:

 Stream Gages:
  GAGE #   SEGMENT   REACH   UNIT   OUTTYPE
       1       1       4      83       1
       2       2       5      84       1
       3       3       5      85       1
       4       4       3      86       1
       5       5       4      87       4
       6       6       5      88       4
       7       7       3      89       4
       8       8       6      90       4
       9       9       1      91       5





 AG -- AG PACKAGE FOR NWT VERSION 1.1.3,  8/01/2017 INPUT READ FROM UNIT   57
 # AG options

 PROCESSING AG OPTIONS
 
 AGRICULTURAL DEMANDS WILL BE CALCULATED USING ET DEFICIT
 
 
 OPTION TO APPLY SURFACE WATER AS IRRIGATION IS ACTIVE. DIVERTED SURFACE WATER WILL BE APPLIED TO          1 CELLS/RHUS.
 
 
 OPTION TO PUMP SUPPLEMENTARY WATER FOR SURFACE DIVERSION SHORTFALL IS ACTIVATED.  A TOTAL OF             6 SUPPLEMENTAL WELLS ARE ACTIVE
 
 
 OPTION TO APPLY PUMPED WATER AS IRRIGATION IS ACTIVE. PUMPED IRRIGATION WATER WILL BE APPLIED TO          6 CELLS/RHUS.
 
 
 THE MAXIMUM NUMBER OF WELLS FOR SUPPLEMENTING DIVERSIONS OR APPLYING IRRIGATION IS          6 WELLS.
 
 
  UNFORMATTED CELL BY CELL RATES FOR SUP AND IRR WELLS WILL BE SAVED TO FILE UNIT NUMBER         -2
 
 
  UNFORMATTED CELL BY CELL RATES FOR SUP AND IRR WELLS WILL BE SAVED TO FILE UNIT NUMBER         -2
 
 
  UNFORMATTED CELL BY CELL RATES FOR SUP AND IRR WELLS WILL BE SAVED TO FILE UNIT NUMBER         -2
 
 
  UNFORMATTED CELL BY CELL RATES FOR SUP AND IRR WELLS WILL BE SAVED TO FILE UNIT NUMBER         -2
 
 
  GROUND WATER IRRIGATION, POTENTIAL AND ACTUAL ET WILL BE SAVED TO TIMES SERIES OUTPUT FILES.
 
 
  SURFACE WATER IRRIGATION, POTENTIAL AND ACTUAL ET WILL BE SAVED TO TIMES SERIES OUTPUT FILES.
 
 
  SURFACE WATER IRRIGATION, POTENTIAL AND ACTUAL ET WILL BE SAVED TO TIMES SERIES OUTPUT FILES.
 

 END PROCESSING AG OPTIONS
 # AG time series

 PROCESSING TIME SERIES

 FINISHED READING TIME SERIES
 A total number of          1 AG output time series files were activated for SURFACE WATER 
 A total number of          1 AG output time series files were activated for GROUNDWATER 
 A total number of          1 AG output time series files were activated for SURFACE WATER ET
 A total number of          0 AG output time series files were activated for GROUNDWATER ET
1
                            STRESS PERIOD NO.    1, LENGTH =   86400.00    
                            -----------------------------------------------

                              NUMBER OF TIME STEPS =     1

                               MULTIPLIER FOR DELT =     1.000

                            INITIAL TIME STEP SIZE =   86400.00    

 BOUND. NO. LAYER   ROW   COL     STAGE      CONDUCTANCE         
 ----------------------------------------------------------------
      1      1     13      1       988.0          0.3800E-01
      2      1     14      9       1045.          0.3800E-01

      2 GHB CELLS



 CLASSIFICATION & COUNT OF STREAM SEGMENTS BASED ON SOURCE OF INFLOW:

                HEADWATER     DIVERSION     RECEIVES TRIBUTARY FLOW
                ---------     ---------     -----------------------
                     3              2               4



                    INPUT DATA FOR EACH STREAM SEGMENT
 ---------------------------------------------------------------------------------------------

 SEGMENT    SEG.     INFLOW   OVERLAND   STREAM    STREAM   ICALC  OUTFLOW  DIVERSION PRIORITY
    NO.    LENGTH     RATE     RUNOFF      ET       PPT.    METH.  TO SEG.  FROM SEG.    NO.

      1  2.305E+04 2.500E+01 0.000E+00 0.000E+00 0.000E+00    4        2        0        0
      2  2.650E+04 0.000E+00 0.000E+00 0.000E+00 0.000E+00    1        6        0        0
      3  2.750E+04 2.000E+00 0.000E+00 0.000E+00 0.000E+00    0        5        1        0
      4  1.100E+04 1.000E+01 0.000E+00 0.000E+00 0.000E+00    1        5        0        0
      5  1.500E+04 0.000E+00 0.000E+00 0.000E+00 0.000E+00    3        6        0        0
      6  2.200E+04 0.000E+00 0.000E+00 0.000E+00 0.000E+00    1        8        0        0
      7  1.550E+04 1.500E+02 0.000E+00 0.000E+00 0.000E+00    2        8        0        0
      8  2.800E+04 0.000E+00 0.000E+00 0.000E+00 0.000E+00    2        0        0        0
      9  6.000E+03 0.000E+00 0.000E+00 0.000E+00 0.000E+00    1        0        2        0


         STREAMBED PROPERTIES AND STREAM DIMENSIONS

 SEGMENT     BED HYD. COND.      BED THICKNESS     ELEV.-TOP OF BED     WIDTH OF STREAM     DEPTH OF STREAM    STREAM ROUGHNESS
    No.     UPPER     LOWER     UPPER     LOWER     UPPER     LOWER     UPPER     LOWER     UPPER     LOWER   CHANNEL      BANK

     1  3.000E-05 3.000E-05 3.000E+00 3.000E+00 1.095E+03 1.075E+03
     2  3.000E-05 3.000E-05 3.000E+00 3.000E+00 1.075E+03 1.050E+03 1.200E+01 1.200E+01                     3.000E-02
     3  3.000E-05 3.000E-05 2.000E+00 2.000E+00 1.075E+03 1.060E+03 1.000E+01 6.000E+00 2.000E+00 1.000E+00
     4  3.000E-05 3.000E-05 3.000E+00 3.000E+00 1.080E+03 1.060E+03 1.000E+01 1.000E+01                     3.000E-02
     5  3.000E-05 3.000E-05 3.000E+00 3.000E+00 1.060E+03 1.045E+03
     6  3.000E-05 3.000E-05 3.000E+00 3.000E+00 1.045E+03 1.025E+03 1.200E+01 1.200E+01                     3.000E-02
     7  6.000E-05 6.000E-05 3.000E+00 3.000E+00 1.040E+03 1.025E+03                                         2.500E-02 4.500E-02
     8  6.000E-05 6.000E-05 3.000E+00 3.000E+00 1.025E+03 9.900E+02                                         2.500E-02 4.500E-02
     9  0.000E+00 0.000E+00 3.000E+00 3.000E+00 1.079E+03 1.078E+03 4.000E+00 4.000E+00                     3.000E-02

  EIGHT POINT CROSS-SECTION DATA FOR SEGMENTS WITH ICALC = 2
    X VALUES X VALUES START FROM LEFT SIDE LOOKING DOWNSTREAM

     SEGMENT NO.        X1        X2        X3        X4        X5        X6        X7        X8
            7      0.000E+00 1.000E+01 8.000E+01 1.000E+02 1.500E+02 1.700E+02 2.400E+02 2.500E+02
            8      0.000E+00 1.000E+01 8.000E+01 1.000E+02 1.500E+02 1.700E+02 2.400E+02 2.500E+02

    Z VALUES ARE RELATIVE TO STREAMBED ELEVATION

     SEGMENT NO.          Z1        Z2        Z3        Z4        Z5        Z6        Z7        Z8
            7      2.000E+01 1.300E+01 1.000E+01 2.000E+00 0.000E+00 1.000E+01 1.300E+01 2.000E+01
            8      2.500E+01 1.700E+01 1.300E+01 4.000E+00 0.000E+00 1.000E+01 1.600E+01 2.000E+01

 STREAMFLOW RELATION WITH DEPTH IS BASED ON EQUATION Q = CDPTH*(DEPTH)**FDPTH
 STREAMFLOW RELATION WITH WIDTH IS BASED ON EQUATION Q = AWDTH*(WIDTH)**BWDTH

 SEGMENT NO.      CDPTH     FDPTH    AWDTH     BWDTH

          5 3.000E-01 3.500E-01 3.800E+00 6.000E-01

 STREAMFLOW RELATION WITH DEPTH AND WIDTH IS BASED ON TABULATED VALUES

  SEGMENT NO.   STREAMFLOW       DEPTH       WIDTH

          1     5.0000E-01   2.5000E-01   3.0000E+00
          1     1.0000E+00   4.0000E-01   3.5000E+00
          1     2.0000E+00   5.5000E-01   4.2000E+00
          1     4.0000E+00   7.0000E-01   5.3000E+00
          1     7.0000E+00   8.0000E-01   7.0000E+00
          1     1.0000E+01   9.0000E-01   8.5000E+00
          1     2.0000E+01   1.1000E+00   1.2000E+01
          1     3.0000E+01   1.2500E+00   1.4000E+01
          1     5.0000E+01   1.4000E+00   1.7000E+01
          1     7.5000E+01   1.7000E+00   2.0000E+01
          1     1.0000E+02   1.8000E+00   2.2000E+01



TABULAR INFLOWS WERE READ FOR SEGMENT      1
FROM FILE UNIT NUMBER     55

          TIMES                    INFLOWS
         0.0000000000E+00     0.3750000000E+01
         0.8640000000E+05     0.1650000000E+02
         0.2760000000E+07     0.3150000000E+02
         0.5270000000E+07     0.5775000000E+02
         0.7950000000E+07     0.2100000000E+02
         0.1050000000E+08     0.7425000000E+02
         0.1320000000E+08     0.6225000000E+02
         0.1580000000E+08     0.5625000000E+02
         0.1850000000E+08     0.4575000000E+02
         0.2120000000E+08     0.3525000000E+02
         0.2380000000E+08     0.2625000000E+02
         0.2640000000E+08     0.1950000000E+02
         0.2900000000E+08     0.1725000000E+02
         0.3170000000E+08     0.1425000000E+02
         0.3440000000E+08     0.1575000000E+02
         0.3680000000E+08     0.7350000000E+02
         0.3950000000E+08     0.5625000000E+02
         0.4210000000E+08     0.4725000000E+02
         0.4480000000E+08     0.4350000000E+02
         0.4730000000E+08     0.4050000000E+02
         0.5000000000E+08     0.2775000000E+02
         0.5270000000E+08     0.1875000000E+02
         0.5530000000E+08     0.1650000000E+02
         0.5800000000E+08     0.1575000000E+02
         0.6060000000E+08     0.1500000000E+02
         0.6320000000E+08     0.1425000000E+02
         0.6330000000E+08     0.1650000000E+02
         0.6600000000E+08     0.3150000000E+02
         0.6850000000E+08     0.5775000000E+02
         0.7120000000E+08     0.2100000000E+02
         0.7370000000E+08     0.7425000000E+02
         0.7640000000E+08     0.6225000000E+02
         0.7900000000E+08     0.5625000000E+02
         0.8170000000E+08     0.4575000000E+02
         0.8440000000E+08     0.3525000000E+02
         0.8700000000E+08     0.2625000000E+02
         0.8960000000E+08     0.1950000000E+02
         0.9220000000E+08     0.1725000000E+02
         0.9490000000E+08     0.1425000000E+02
         0.9760000000E+08     0.1575000000E+02
         0.1000000000E+09     0.7350000000E+02
         0.1030000000E+09     0.5625000000E+02
         0.1050000000E+09     0.4725000000E+02
         0.1080000000E+09     0.4350000000E+02
         0.1110000000E+09     0.4050000000E+02
         0.1130000000E+09     0.2775000000E+02
         0.1160000000E+09     0.1875000000E+02
         0.1190000000E+09     0.1650000000E+02
         0.1210000000E+09     0.1575000000E+02
         0.1240000000E+09     0.1500000000E+02
         0.1260000000E+09     0.1425000000E+02
TABULAR INFLOWS WERE READ FOR SEGMENT      9
FROM FILE UNIT NUMBER     56

          TIMES                    INFLOWS
         0.0000000000E+00     0.1000000000E+03
         0.8640000000E+05     0.1000000000E+03
         0.1730000000E+06     0.1000000000E+03
         0.2590000000E+06     0.1000000000E+03
         0.3460000000E+06     0.1000000000E+03
         0.4320000000E+06     0.1000000000E+03
         0.5180000000E+06     0.1000000000E+03
         0.6050000000E+06     0.1000000000E+03
         0.6910000000E+06     0.1000000000E+03
         0.7780000000E+06     0.1000000000E+03
         0.8640000000E+06     0.1000000000E+03
         0.9500000000E+06     0.1000000000E+03
         0.1040000000E+07     0.1000000000E+03
         0.1120000000E+07     0.1000000000E+03
         0.1210000000E+07     0.1000000000E+03
         0.1300000000E+07     0.1000000000E+03
         0.1380000000E+07     0.1000000000E+03
         0.1470000000E+07     0.1000000000E+03
         0.1560000000E+07     0.1000000000E+03
         0.1640000000E+07     0.1000000000E+03
         0.1730000000E+07     0.1000000000E+03
         0.1810000000E+07     0.1000000000E+03
         0.1900000000E+07     0.1000000000E+03
         0.1990000000E+07     0.1000000000E+03
         0.2070000000E+07     0.1000000000E+03
         0.2160000000E+07     0.1000000000E+03
         0.2250000000E+07     0.1000000000E+03
         0.2330000000E+07     0.1000000000E+03
         0.2420000000E+07     0.1000000000E+03
         0.2510000000E+07     0.1000000000E+03
         0.2590000000E+07     0.1000000000E+03
         0.2680000000E+07     0.1000000000E+03
         0.2760000000E+07     0.1000000000E+03
         0.2850000000E+07     0.1000000000E+03
         0.2940000000E+07     0.1000000000E+03
         0.3020000000E+07     0.1000000000E+03
         0.3110000000E+07     0.1000000000E+03
         0.3200000000E+07     0.1000000000E+03
         0.3280000000E+07     0.1000000000E+03
         0.3370000000E+07     0.1000000000E+03
         0.3460000000E+07     0.1000000000E+03
         0.3540000000E+07     0.1000000000E+03
         0.3630000000E+07     0.1000000000E+03
         0.3720000000E+07     0.1000000000E+03
         0.3800000000E+07     0.1000000000E+03
         0.3890000000E+07     0.1000000000E+03
         0.3970000000E+07     0.1000000000E+03
         0.4060000000E+07     0.1000000000E+03
         0.4150000000E+07     0.1000000000E+03
         0.4230000000E+07     0.1000000000E+03
         0.4320000000E+07     0.1000000000E+03
         0.4410000000E+07     0.1000000000E+03
         0.4490000000E+07     0.1000000000E+03
         0.4580000000E+07     0.1000000000E+03
         0.4670000000E+07     0.1000000000E+03
         0.4750000000E+07     0.1000000000E+03
         0.4840000000E+07     0.1000000000E+03
         0.4920000000E+07     0.1000000000E+03
         0.5010000000E+07     0.1000000000E+03
         0.5100000000E+07     0.1000000000E+03
         0.5180000000E+07     0.1000000000E+03
         0.5270000000E+07     0.1000000000E+03
         0.5360000000E+07     0.1000000000E+03
         0.5440000000E+07     0.1000000000E+03
         0.5530000000E+07     0.1000000000E+03
         0.5620000000E+07     0.1000000000E+03
         0.5700000000E+07     0.1000000000E+03
         0.5790000000E+07     0.1000000000E+03
         0.5880000000E+07     0.1000000000E+03
         0.5960000000E+07     0.1000000000E+03
         0.6050000000E+07     0.1000000000E+03
         0.6130000000E+07     0.1000000000E+03
         0.6220000000E+07     0.1000000000E+03
         0.6310000000E+07     0.1000000000E+03
         0.6390000000E+07     0.1000000000E+03
         0.6480000000E+07     0.1000000000E+03
         0.6570000000E+07     0.1000000000E+03
         0.6650000000E+07     0.1000000000E+03
         0.6740000000E+07     0.1000000000E+03
         0.6830000000E+07     0.1000000000E+03
         0.6910000000E+07     0.1000000000E+03
         0.7000000000E+07     0.1000000000E+03
         0.7080000000E+07     0.1000000000E+03
         0.7170000000E+07     0.1000000000E+03
         0.7260000000E+07     0.1000000000E+03
         0.7340000000E+07     0.1000000000E+03
         0.7430000000E+07     0.1000000000E+03
         0.7520000000E+07     0.1000000000E+03
         0.7600000000E+07     0.1000000000E+03
         0.7690000000E+07     0.1000000000E+03
         0.7780000000E+07     0.1000000000E+03
         0.7860000000E+07     0.1000000000E+03
         0.7950000000E+07     0.1000000000E+03
         0.8040000000E+07     0.1000000000E+03
         0.8120000000E+07     0.1000000000E+03
         0.8210000000E+07     0.1000000000E+03
         0.8290000000E+07     0.1000000000E+03
         0.8380000000E+07     0.1000000000E+03
         0.8470000000E+07     0.1000000000E+03
         0.8550000000E+07     0.1000000000E+03
         0.8640000000E+07     0.1000000000E+03
         0.8730000000E+07     0.1000000000E+03
         0.8810000000E+07     0.1000000000E+03
         0.8900000000E+07     0.1000000000E+03
         0.8990000000E+07     0.1000000000E+03
         0.9070000000E+07     0.1000000000E+03
         0.9160000000E+07     0.1000000000E+03
         0.9240000000E+07     0.1000000000E+03
         0.9330000000E+07     0.1000000000E+03
         0.9420000000E+07     0.1000000000E+03
         0.9500000000E+07     0.1000000000E+03
         0.9590000000E+07     0.1000000000E+03
         0.9680000000E+07     0.1000000000E+03
         0.9760000000E+07     0.1000000000E+03
         0.9850000000E+07     0.1000000000E+03
         0.9940000000E+07     0.1000000000E+03
         0.1000000000E+08     0.1000000000E+03
         0.1010000000E+08     0.1000000000E+03
         0.1020000000E+08     0.1000000000E+03
         0.1030000000E+08     0.1000000000E+03
         0.1040000000E+08     0.1000000000E+03
         0.1050000000E+08     0.1000000000E+03
         0.1050000000E+08     0.1000000000E+03
         0.1060000000E+08     0.1000000000E+03
         0.1070000000E+08     0.1000000000E+03
         0.1080000000E+08     0.1000000000E+03
         0.1090000000E+08     0.1000000000E+03
         0.1100000000E+08     0.1000000000E+03
         0.1110000000E+08     0.1000000000E+03
         0.1110000000E+08     0.1000000000E+03
         0.1120000000E+08     0.1000000000E+03
         0.1130000000E+08     0.1000000000E+03
         0.1140000000E+08     0.1000000000E+03
         0.1150000000E+08     0.1000000000E+03
         0.1160000000E+08     0.1000000000E+03
         0.1170000000E+08     0.1000000000E+03
         0.1180000000E+08     0.1000000000E+03
         0.1180000000E+08     0.1000000000E+03
         0.1190000000E+08     0.1000000000E+03
         0.1200000000E+08     0.1000000000E+03
         0.1210000000E+08     0.1000000000E+03
         0.1220000000E+08     0.1000000000E+03
         0.1230000000E+08     0.1000000000E+03
         0.1240000000E+08     0.1000000000E+03
         0.1240000000E+08     0.1000000000E+03
         0.1250000000E+08     0.1000000000E+03
         0.1260000000E+08     0.1000000000E+03
         0.1270000000E+08     0.1000000000E+03
         0.1280000000E+08     0.1000000000E+03
         0.1290000000E+08     0.1000000000E+03
         0.1300000000E+08     0.1000000000E+03
         0.1300000000E+08     0.1000000000E+03
         0.1310000000E+08     0.1000000000E+03
         0.1320000000E+08     0.1000000000E+03
         0.1330000000E+08     0.1000000000E+03
         0.1340000000E+08     0.1000000000E+03
         0.1350000000E+08     0.1000000000E+03
         0.1360000000E+08     0.1000000000E+03
         0.1370000000E+08     0.1000000000E+03
         0.1370000000E+08     0.1000000000E+03
         0.1380000000E+08     0.1000000000E+03
         0.1390000000E+08     0.1000000000E+03
         0.1400000000E+08     0.1000000000E+03
         0.1410000000E+08     0.1000000000E+03
         0.1420000000E+08     0.1000000000E+03
         0.1430000000E+08     0.1000000000E+03
         0.1430000000E+08     0.1000000000E+03
         0.1440000000E+08     0.1000000000E+03
         0.1450000000E+08     0.1000000000E+03
         0.1460000000E+08     0.1000000000E+03
         0.1470000000E+08     0.1000000000E+03
         0.1480000000E+08     0.1000000000E+03
         0.1490000000E+08     0.1000000000E+03
         0.1490000000E+08     0.1000000000E+03
         0.1500000000E+08     0.1000000000E+03
         0.1510000000E+08     0.1000000000E+03
         0.1520000000E+08     0.1000000000E+03
         0.1530000000E+08     0.1000000000E+03
         0.1540000000E+08     0.1000000000E+03
         0.1550000000E+08     0.1000000000E+03
         0.1560000000E+08     0.1000000000E+03
         0.1560000000E+08     0.1000000000E+03
         0.1570000000E+08     0.1000000000E+03
         0.1580000000E+08     0.1000000000E+03
         0.1590000000E+08     0.1000000000E+03
         0.1600000000E+08     0.1000000000E+03
         0.1610000000E+08     0.1000000000E+03
         0.1620000000E+08     0.1000000000E+03
         0.1620000000E+08     0.1000000000E+03
         0.1630000000E+08     0.1000000000E+03
         0.1640000000E+08     0.1000000000E+03
         0.1650000000E+08     0.1000000000E+03
         0.1660000000E+08     0.1000000000E+03
         0.1670000000E+08     0.1000000000E+03
         0.1680000000E+08     0.1000000000E+03
         0.1680000000E+08     0.1000000000E+03
         0.1690000000E+08     0.1000000000E+03
         0.1700000000E+08     0.1000000000E+03
         0.1710000000E+08     0.1000000000E+03
         0.1720000000E+08     0.1000000000E+03
         0.1730000000E+08     0.1000000000E+03
         0.1740000000E+08     0.1000000000E+03
         0.1750000000E+08     0.1000000000E+03
         0.1750000000E+08     0.1000000000E+03
         0.1760000000E+08     0.1000000000E+03
         0.1770000000E+08     0.1000000000E+03
         0.1780000000E+08     0.1000000000E+03
         0.1790000000E+08     0.1000000000E+03
         0.1800000000E+08     0.1000000000E+03
         0.1810000000E+08     0.1000000000E+03
         0.1810000000E+08     0.1000000000E+03
         0.1820000000E+08     0.1000000000E+03
         0.1830000000E+08     0.1000000000E+03
         0.1840000000E+08     0.1000000000E+03
         0.1850000000E+08     0.1000000000E+03
         0.1860000000E+08     0.1000000000E+03
         0.1870000000E+08     0.1000000000E+03
         0.1870000000E+08     0.1000000000E+03
         0.1880000000E+08     0.1000000000E+03
         0.1890000000E+08     0.1000000000E+03
         0.1900000000E+08     0.1000000000E+03
         0.1910000000E+08     0.1000000000E+03
         0.1920000000E+08     0.1000000000E+03
         0.1930000000E+08     0.1000000000E+03
         0.1940000000E+08     0.1000000000E+03
         0.1940000000E+08     0.1000000000E+03
         0.1950000000E+08     0.1000000000E+03
         0.1960000000E+08     0.1000000000E+03
         0.1970000000E+08     0.1000000000E+03
         0.1980000000E+08     0.1000000000E+03
         0.1990000000E+08     0.1000000000E+03
         0.2000000000E+08     0.1000000000E+03
         0.2000000000E+08     0.1000000000E+03
         0.2010000000E+08     0.1000000000E+03
         0.2020000000E+08     0.1000000000E+03
         0.2030000000E+08     0.1000000000E+03
         0.2040000000E+08     0.1000000000E+03
         0.2050000000E+08     0.1000000000E+03
         0.2060000000E+08     0.1000000000E+03
         0.2070000000E+08     0.1000000000E+03
         0.2070000000E+08     0.1000000000E+03
         0.2080000000E+08     0.1000000000E+03
         0.2090000000E+08     0.1000000000E+03
         0.2100000000E+08     0.1000000000E+03
         0.2110000000E+08     0.1000000000E+03
         0.2120000000E+08     0.1000000000E+03
         0.2130000000E+08     0.1000000000E+03
         0.2130000000E+08     0.1000000000E+03
         0.2140000000E+08     0.1000000000E+03
         0.2150000000E+08     0.1000000000E+03
         0.2160000000E+08     0.1000000000E+03
         0.2170000000E+08     0.1000000000E+03
         0.2180000000E+08     0.1000000000E+03
         0.2190000000E+08     0.1000000000E+03
         0.2190000000E+08     0.1000000000E+03
         0.2200000000E+08     0.1000000000E+03
         0.2210000000E+08     0.1000000000E+03
         0.2220000000E+08     0.1000000000E+03
         0.2230000000E+08     0.1000000000E+03
         0.2240000000E+08     0.1000000000E+03
         0.2250000000E+08     0.1000000000E+03
         0.2260000000E+08     0.1000000000E+03
         0.2260000000E+08     0.1000000000E+03
         0.2270000000E+08     0.1000000000E+03
         0.2280000000E+08     0.1000000000E+03
         0.2290000000E+08     0.1000000000E+03
         0.2300000000E+08     0.1000000000E+03
         0.2310000000E+08     0.1000000000E+03
         0.2320000000E+08     0.1000000000E+03
         0.2320000000E+08     0.1000000000E+03
         0.2330000000E+08     0.1000000000E+03
         0.2340000000E+08     0.1000000000E+03
         0.2350000000E+08     0.1000000000E+03
         0.2360000000E+08     0.1000000000E+03
         0.2370000000E+08     0.1000000000E+03
         0.2380000000E+08     0.1000000000E+03
         0.2380000000E+08     0.1000000000E+03
         0.2390000000E+08     0.1000000000E+03
         0.2400000000E+08     0.1000000000E+03
         0.2410000000E+08     0.1000000000E+03
         0.2420000000E+08     0.1000000000E+03
         0.2430000000E+08     0.1000000000E+03
         0.2440000000E+08     0.1000000000E+03
         0.2450000000E+08     0.1000000000E+03
         0.2450000000E+08     0.1000000000E+03
         0.2460000000E+08     0.1000000000E+03
         0.2470000000E+08     0.1000000000E+03
         0.2480000000E+08     0.1000000000E+03
         0.2490000000E+08     0.1000000000E+03
         0.2500000000E+08     0.1000000000E+03
         0.2510000000E+08     0.1000000000E+03
         0.2510000000E+08     0.1000000000E+03
         0.2520000000E+08     0.1000000000E+03
         0.2530000000E+08     0.1000000000E+03
         0.2540000000E+08     0.1000000000E+03
         0.2550000000E+08     0.1000000000E+03
         0.2560000000E+08     0.1000000000E+03
         0.2570000000E+08     0.1000000000E+03
         0.2570000000E+08     0.1000000000E+03
         0.2580000000E+08     0.1000000000E+03
         0.2590000000E+08     0.1000000000E+03
         0.2600000000E+08     0.1000000000E+03
         0.2610000000E+08     0.1000000000E+03
         0.2620000000E+08     0.1000000000E+03
         0.2630000000E+08     0.1000000000E+03
         0.2640000000E+08     0.1000000000E+03
         0.2640000000E+08     0.1000000000E+03
         0.2650000000E+08     0.1000000000E+03
         0.2660000000E+08     0.1000000000E+03
         0.2670000000E+08     0.1000000000E+03
         0.2680000000E+08     0.1000000000E+03
         0.2690000000E+08     0.1000000000E+03
         0.2700000000E+08     0.1000000000E+03
         0.2700000000E+08     0.1000000000E+03
         0.2710000000E+08     0.1000000000E+03
         0.2720000000E+08     0.1000000000E+03
         0.2730000000E+08     0.1000000000E+03
         0.2740000000E+08     0.1000000000E+03
         0.2750000000E+08     0.1000000000E+03
         0.2760000000E+08     0.1000000000E+03
         0.2760000000E+08     0.1000000000E+03
         0.2770000000E+08     0.1000000000E+03
         0.2780000000E+08     0.1000000000E+03
         0.2790000000E+08     0.1000000000E+03
         0.2800000000E+08     0.1000000000E+03
         0.2810000000E+08     0.1000000000E+03
         0.2820000000E+08     0.1000000000E+03
         0.2830000000E+08     0.1000000000E+03
         0.2830000000E+08     0.1000000000E+03
         0.2840000000E+08     0.1000000000E+03
         0.2850000000E+08     0.1000000000E+03
         0.2860000000E+08     0.1000000000E+03
         0.2870000000E+08     0.1000000000E+03
         0.2880000000E+08     0.1000000000E+03
         0.2890000000E+08     0.1000000000E+03
         0.2890000000E+08     0.1000000000E+03
         0.2900000000E+08     0.1000000000E+03
         0.2910000000E+08     0.1000000000E+03
         0.2920000000E+08     0.1000000000E+03
         0.2930000000E+08     0.1000000000E+03
         0.2940000000E+08     0.1000000000E+03
         0.2950000000E+08     0.1000000000E+03
         0.2950000000E+08     0.1000000000E+03
         0.2960000000E+08     0.1000000000E+03
         0.2970000000E+08     0.1000000000E+03
         0.2980000000E+08     0.1000000000E+03
         0.2990000000E+08     0.1000000000E+03
         0.3000000000E+08     0.1000000000E+03
         0.3010000000E+08     0.1000000000E+03
         0.3020000000E+08     0.1000000000E+03
         0.3020000000E+08     0.1000000000E+03
         0.3030000000E+08     0.1000000000E+03
         0.3040000000E+08     0.1000000000E+03
         0.3050000000E+08     0.1000000000E+03
         0.3060000000E+08     0.1000000000E+03
         0.3070000000E+08     0.1000000000E+03
         0.3080000000E+08     0.1000000000E+03
         0.3080000000E+08     0.1000000000E+03
         0.3090000000E+08     0.1000000000E+03
         0.3100000000E+08     0.1000000000E+03
         0.3110000000E+08     0.1000000000E+03
         0.3120000000E+08     0.1000000000E+03
         0.3130000000E+08     0.1000000000E+03
         0.3140000000E+08     0.1000000000E+03
         0.3150000000E+08     0.1000000000E+03
         0.3150000000E+08     0.1000000000E+03
         0.3160000000E+08     0.1000000000E+03
         0.3170000000E+08     0.1000000000E+03
         0.3180000000E+08     0.1000000000E+03
         0.3190000000E+08     0.1000000000E+03
         0.3200000000E+08     0.1000000000E+03
         0.3210000000E+08     0.1000000000E+03
         0.3210000000E+08     0.1000000000E+03
         0.3220000000E+08     0.1000000000E+03
         0.3230000000E+08     0.1000000000E+03
         0.3240000000E+08     0.1000000000E+03
         0.3250000000E+08     0.1000000000E+03
         0.3260000000E+08     0.1000000000E+03
         0.3270000000E+08     0.1000000000E+03
         0.3270000000E+08     0.1000000000E+03
         0.3280000000E+08     0.1000000000E+03
         0.3290000000E+08     0.1000000000E+03
         0.3300000000E+08     0.1000000000E+03
         0.3310000000E+08     0.1000000000E+03
         0.3320000000E+08     0.1000000000E+03
         0.3330000000E+08     0.1000000000E+03
         0.3340000000E+08     0.1000000000E+03
         0.3340000000E+08     0.1000000000E+03
         0.3350000000E+08     0.1000000000E+03
         0.3360000000E+08     0.1000000000E+03
         0.3370000000E+08     0.1000000000E+03
         0.3380000000E+08     0.1000000000E+03
         0.3390000000E+08     0.1000000000E+03
         0.3400000000E+08     0.1000000000E+03
         0.3400000000E+08     0.1000000000E+03
         0.3410000000E+08     0.1000000000E+03
         0.3420000000E+08     0.1000000000E+03
         0.3430000000E+08     0.1000000000E+03
         0.3440000000E+08     0.1000000000E+03
         0.3450000000E+08     0.1000000000E+03
         0.3460000000E+08     0.1000000000E+03
         0.3460000000E+08     0.1000000000E+03
         0.3470000000E+08     0.1000000000E+03
         0.3480000000E+08     0.1000000000E+03
         0.3490000000E+08     0.1000000000E+03
         0.3500000000E+08     0.1000000000E+03
         0.3510000000E+08     0.1000000000E+03
         0.3520000000E+08     0.1000000000E+03
         0.3530000000E+08     0.1000000000E+03
         0.3530000000E+08     0.1000000000E+03
         0.3540000000E+08     0.1000000000E+03
         0.3550000000E+08     0.1000000000E+03
         0.3560000000E+08     0.1000000000E+03
         0.3570000000E+08     0.1000000000E+03
         0.3580000000E+08     0.1000000000E+03
         0.3590000000E+08     0.1000000000E+03
         0.3590000000E+08     0.1000000000E+03
         0.3600000000E+08     0.1000000000E+03
         0.3610000000E+08     0.1000000000E+03
         0.3620000000E+08     0.1000000000E+03
         0.3630000000E+08     0.1000000000E+03
         0.3640000000E+08     0.1000000000E+03
         0.3650000000E+08     0.1000000000E+03
         0.3650000000E+08     0.1000000000E+03
         0.3660000000E+08     0.1000000000E+03
         0.3670000000E+08     0.1000000000E+03
         0.3680000000E+08     0.1000000000E+03
         0.3690000000E+08     0.1000000000E+03
         0.3700000000E+08     0.1000000000E+03
         0.3710000000E+08     0.1000000000E+03
         0.3720000000E+08     0.1000000000E+03
         0.3720000000E+08     0.1000000000E+03
         0.3730000000E+08     0.1000000000E+03
         0.3740000000E+08     0.1000000000E+03
         0.3750000000E+08     0.1000000000E+03
         0.3760000000E+08     0.1000000000E+03
         0.3770000000E+08     0.1000000000E+03
         0.3780000000E+08     0.1000000000E+03
         0.3780000000E+08     0.1000000000E+03
         0.3790000000E+08     0.1000000000E+03
         0.3800000000E+08     0.1000000000E+03
         0.3810000000E+08     0.1000000000E+03
         0.3820000000E+08     0.1000000000E+03
         0.3830000000E+08     0.1000000000E+03
         0.3840000000E+08     0.1000000000E+03
         0.3840000000E+08     0.1000000000E+03
         0.3850000000E+08     0.1000000000E+03
         0.3860000000E+08     0.1000000000E+03
         0.3870000000E+08     0.1000000000E+03
         0.3880000000E+08     0.1000000000E+03
         0.3890000000E+08     0.1000000000E+03
         0.3900000000E+08     0.1000000000E+03
         0.3910000000E+08     0.1000000000E+03
         0.3910000000E+08     0.1000000000E+03
         0.3920000000E+08     0.1000000000E+03
         0.3930000000E+08     0.1000000000E+03
         0.3940000000E+08     0.1000000000E+03
         0.3950000000E+08     0.1000000000E+03
         0.3960000000E+08     0.1000000000E+03
         0.3970000000E+08     0.1000000000E+03
         0.3970000000E+08     0.1000000000E+03
         0.3980000000E+08     0.1000000000E+03
         0.3990000000E+08     0.1000000000E+03
         0.4000000000E+08     0.1000000000E+03
         0.4010000000E+08     0.1000000000E+03
         0.4020000000E+08     0.1000000000E+03
         0.4030000000E+08     0.1000000000E+03
         0.4030000000E+08     0.1000000000E+03
         0.4040000000E+08     0.1000000000E+03
         0.4050000000E+08     0.1000000000E+03
         0.4060000000E+08     0.1000000000E+03
         0.4070000000E+08     0.1000000000E+03
         0.4080000000E+08     0.1000000000E+03
         0.4090000000E+08     0.1000000000E+03
         0.4100000000E+08     0.1000000000E+03
         0.4100000000E+08     0.1000000000E+03
         0.4110000000E+08     0.1000000000E+03
         0.4120000000E+08     0.1000000000E+03
         0.4130000000E+08     0.1000000000E+03
         0.4140000000E+08     0.1000000000E+03
         0.4150000000E+08     0.1000000000E+03
         0.4160000000E+08     0.1000000000E+03
         0.4160000000E+08     0.1000000000E+03
         0.4170000000E+08     0.1000000000E+03
         0.4180000000E+08     0.1000000000E+03
         0.4190000000E+08     0.1000000000E+03
         0.4200000000E+08     0.1000000000E+03
         0.4210000000E+08     0.1000000000E+03
         0.4220000000E+08     0.1000000000E+03
         0.4230000000E+08     0.1000000000E+03
         0.4230000000E+08     0.1000000000E+03
         0.4240000000E+08     0.1000000000E+03
         0.4250000000E+08     0.1000000000E+03
         0.4260000000E+08     0.1000000000E+03
         0.4270000000E+08     0.1000000000E+03
         0.4280000000E+08     0.1000000000E+03
         0.4290000000E+08     0.1000000000E+03
         0.4290000000E+08     0.1000000000E+03
         0.4300000000E+08     0.1000000000E+03
         0.4310000000E+08     0.1000000000E+03
         0.4320000000E+08     0.1000000000E+03
         0.4330000000E+08     0.1000000000E+03
         0.4340000000E+08     0.1000000000E+03
         0.4350000000E+08     0.1000000000E+03
         0.4350000000E+08     0.1000000000E+03
         0.4360000000E+08     0.1000000000E+03
         0.4370000000E+08     0.1000000000E+03
         0.4380000000E+08     0.1000000000E+03
         0.4390000000E+08     0.1000000000E+03
         0.4400000000E+08     0.1000000000E+03
         0.4410000000E+08     0.1000000000E+03
         0.4420000000E+08     0.1000000000E+03
         0.4420000000E+08     0.1000000000E+03
         0.4430000000E+08     0.1000000000E+03
         0.4440000000E+08     0.1000000000E+03
         0.4450000000E+08     0.1000000000E+03
         0.4460000000E+08     0.1000000000E+03
         0.4470000000E+08     0.1000000000E+03
         0.4480000000E+08     0.1000000000E+03
         0.4480000000E+08     0.1000000000E+03
         0.4490000000E+08     0.1000000000E+03
         0.4500000000E+08     0.1000000000E+03
         0.4510000000E+08     0.1000000000E+03
         0.4520000000E+08     0.1000000000E+03
         0.4530000000E+08     0.1000000000E+03
         0.4540000000E+08     0.1000000000E+03
         0.4540000000E+08     0.1000000000E+03
         0.4550000000E+08     0.1000000000E+03
         0.4560000000E+08     0.1000000000E+03
         0.4570000000E+08     0.1000000000E+03
         0.4580000000E+08     0.1000000000E+03
         0.4590000000E+08     0.1000000000E+03
         0.4600000000E+08     0.1000000000E+03
         0.4610000000E+08     0.1000000000E+03
         0.4610000000E+08     0.1000000000E+03
         0.4620000000E+08     0.1000000000E+03
         0.4630000000E+08     0.1000000000E+03
         0.4640000000E+08     0.1000000000E+03
         0.4650000000E+08     0.1000000000E+03
         0.4660000000E+08     0.1000000000E+03
         0.4670000000E+08     0.1000000000E+03
         0.4670000000E+08     0.1000000000E+03
         0.4680000000E+08     0.1000000000E+03
         0.4690000000E+08     0.1000000000E+03
         0.4700000000E+08     0.1000000000E+03
         0.4710000000E+08     0.1000000000E+03
         0.4720000000E+08     0.1000000000E+03
         0.4730000000E+08     0.1000000000E+03
         0.4730000000E+08     0.1000000000E+03
         0.4740000000E+08     0.1000000000E+03
         0.4750000000E+08     0.1000000000E+03
         0.4760000000E+08     0.1000000000E+03
         0.4770000000E+08     0.1000000000E+03
         0.4780000000E+08     0.1000000000E+03
         0.4790000000E+08     0.1000000000E+03
         0.4800000000E+08     0.1000000000E+03
         0.4800000000E+08     0.1000000000E+03
         0.4810000000E+08     0.1000000000E+03
         0.4820000000E+08     0.1000000000E+03
         0.4830000000E+08     0.1000000000E+03
         0.4840000000E+08     0.1000000000E+03
         0.4850000000E+08     0.1000000000E+03
         0.4860000000E+08     0.1000000000E+03
         0.4860000000E+08     0.1000000000E+03
         0.4870000000E+08     0.1000000000E+03
         0.4880000000E+08     0.1000000000E+03
         0.4890000000E+08     0.1000000000E+03
         0.4900000000E+08     0.1000000000E+03
         0.4910000000E+08     0.1000000000E+03
         0.4920000000E+08     0.1000000000E+03
         0.4920000000E+08     0.1000000000E+03
         0.4930000000E+08     0.1000000000E+03
         0.4940000000E+08     0.1000000000E+03
         0.4950000000E+08     0.1000000000E+03
         0.4960000000E+08     0.1000000000E+03
         0.4970000000E+08     0.1000000000E+03
         0.4980000000E+08     0.1000000000E+03
         0.4990000000E+08     0.1000000000E+03
         0.4990000000E+08     0.1000000000E+03
         0.5000000000E+08     0.1000000000E+03
         0.5010000000E+08     0.1000000000E+03
         0.5020000000E+08     0.1000000000E+03
         0.5030000000E+08     0.1000000000E+03
         0.5040000000E+08     0.1000000000E+03
         0.5050000000E+08     0.1000000000E+03
         0.5050000000E+08     0.1000000000E+03
         0.5060000000E+08     0.1000000000E+03
         0.5070000000E+08     0.1000000000E+03
         0.5080000000E+08     0.1000000000E+03
         0.5090000000E+08     0.1000000000E+03
         0.5100000000E+08     0.1000000000E+03
         0.5110000000E+08     0.1000000000E+03
         0.5110000000E+08     0.1000000000E+03
         0.5120000000E+08     0.1000000000E+03
         0.5130000000E+08     0.1000000000E+03
         0.5140000000E+08     0.1000000000E+03
         0.5150000000E+08     0.1000000000E+03
         0.5160000000E+08     0.1000000000E+03
         0.5170000000E+08     0.1000000000E+03
         0.5180000000E+08     0.1000000000E+03
         0.5180000000E+08     0.1000000000E+03
         0.5190000000E+08     0.1000000000E+03
         0.5200000000E+08     0.1000000000E+03
         0.5210000000E+08     0.1000000000E+03
         0.5220000000E+08     0.1000000000E+03
         0.5230000000E+08     0.1000000000E+03
         0.5240000000E+08     0.1000000000E+03
         0.5240000000E+08     0.1000000000E+03
         0.5250000000E+08     0.1000000000E+03
         0.5260000000E+08     0.1000000000E+03
         0.5270000000E+08     0.1000000000E+03
         0.5280000000E+08     0.1000000000E+03
         0.5290000000E+08     0.1000000000E+03
         0.5300000000E+08     0.1000000000E+03
         0.5310000000E+08     0.1000000000E+03
         0.5310000000E+08     0.1000000000E+03
         0.5320000000E+08     0.1000000000E+03
         0.5330000000E+08     0.1000000000E+03
         0.5340000000E+08     0.1000000000E+03
         0.5350000000E+08     0.1000000000E+03
         0.5360000000E+08     0.1000000000E+03
         0.5370000000E+08     0.1000000000E+03
         0.5370000000E+08     0.1000000000E+03
         0.5380000000E+08     0.1000000000E+03
         0.5390000000E+08     0.1000000000E+03
         0.5400000000E+08     0.1000000000E+03
         0.5410000000E+08     0.1000000000E+03
         0.5420000000E+08     0.1000000000E+03
         0.5430000000E+08     0.1000000000E+03
         0.5430000000E+08     0.1000000000E+03
         0.5440000000E+08     0.1000000000E+03
         0.5450000000E+08     0.1000000000E+03
         0.5460000000E+08     0.1000000000E+03
         0.5470000000E+08     0.1000000000E+03
         0.5480000000E+08     0.1000000000E+03
         0.5490000000E+08     0.1000000000E+03
         0.5500000000E+08     0.1000000000E+03
         0.5500000000E+08     0.1000000000E+03
         0.5510000000E+08     0.1000000000E+03
         0.5520000000E+08     0.1000000000E+03
         0.5530000000E+08     0.1000000000E+03
         0.5540000000E+08     0.1000000000E+03
         0.5550000000E+08     0.1000000000E+03
         0.5560000000E+08     0.1000000000E+03
         0.5560000000E+08     0.1000000000E+03
         0.5570000000E+08     0.1000000000E+03
         0.5580000000E+08     0.1000000000E+03
         0.5590000000E+08     0.1000000000E+03
         0.5600000000E+08     0.1000000000E+03
         0.5610000000E+08     0.1000000000E+03
         0.5620000000E+08     0.1000000000E+03
         0.5620000000E+08     0.1000000000E+03
         0.5630000000E+08     0.1000000000E+03
         0.5640000000E+08     0.1000000000E+03
         0.5650000000E+08     0.1000000000E+03
         0.5660000000E+08     0.1000000000E+03
         0.5670000000E+08     0.1000000000E+03
         0.5680000000E+08     0.1000000000E+03
         0.5690000000E+08     0.1000000000E+03
         0.5690000000E+08     0.1000000000E+03
         0.5700000000E+08     0.1000000000E+03
         0.5710000000E+08     0.1000000000E+03
         0.5720000000E+08     0.1000000000E+03
         0.5730000000E+08     0.1000000000E+03
         0.5740000000E+08     0.1000000000E+03
         0.5750000000E+08     0.1000000000E+03
         0.5750000000E+08     0.1000000000E+03
         0.5760000000E+08     0.1000000000E+03
         0.5770000000E+08     0.1000000000E+03
         0.5780000000E+08     0.1000000000E+03
         0.5790000000E+08     0.1000000000E+03
         0.5800000000E+08     0.1000000000E+03
         0.5810000000E+08     0.1000000000E+03
         0.5810000000E+08     0.1000000000E+03
         0.5820000000E+08     0.1000000000E+03
         0.5830000000E+08     0.1000000000E+03
         0.5840000000E+08     0.1000000000E+03
         0.5850000000E+08     0.1000000000E+03
         0.5860000000E+08     0.1000000000E+03
         0.5870000000E+08     0.1000000000E+03
         0.5880000000E+08     0.1000000000E+03
         0.5880000000E+08     0.1000000000E+03
         0.5890000000E+08     0.1000000000E+03
         0.5900000000E+08     0.1000000000E+03
         0.5910000000E+08     0.1000000000E+03
         0.5920000000E+08     0.1000000000E+03
         0.5930000000E+08     0.1000000000E+03
         0.5940000000E+08     0.1000000000E+03
         0.5940000000E+08     0.1000000000E+03
         0.5950000000E+08     0.1000000000E+03
         0.5960000000E+08     0.1000000000E+03
         0.5970000000E+08     0.1000000000E+03
         0.5980000000E+08     0.1000000000E+03
         0.5990000000E+08     0.1000000000E+03
         0.6000000000E+08     0.1000000000E+03
         0.6000000000E+08     0.1000000000E+03
         0.6010000000E+08     0.1000000000E+03
         0.6020000000E+08     0.1000000000E+03
         0.6030000000E+08     0.1000000000E+03
         0.6040000000E+08     0.1000000000E+03
         0.6050000000E+08     0.1000000000E+03
         0.6060000000E+08     0.1000000000E+03
         0.6070000000E+08     0.1000000000E+03
         0.6070000000E+08     0.1000000000E+03
         0.6080000000E+08     0.1000000000E+03
         0.6090000000E+08     0.1000000000E+03
         0.6100000000E+08     0.1000000000E+03
         0.6110000000E+08     0.1000000000E+03
         0.6120000000E+08     0.1000000000E+03
         0.6130000000E+08     0.1000000000E+03
         0.6130000000E+08     0.1000000000E+03
         0.6140000000E+08     0.1000000000E+03
         0.6150000000E+08     0.1000000000E+03
         0.6160000000E+08     0.1000000000E+03
         0.6170000000E+08     0.1000000000E+03
         0.6180000000E+08     0.1000000000E+03
         0.6190000000E+08     0.1000000000E+03
         0.6190000000E+08     0.1000000000E+03
         0.6200000000E+08     0.1000000000E+03
         0.6210000000E+08     0.1000000000E+03
         0.6220000000E+08     0.1000000000E+03
         0.6230000000E+08     0.1000000000E+03
         0.6240000000E+08     0.1000000000E+03
         0.6250000000E+08     0.1000000000E+03
         0.6260000000E+08     0.1000000000E+03
         0.6260000000E+08     0.1000000000E+03
         0.6270000000E+08     0.1000000000E+03
         0.6280000000E+08     0.1000000000E+03
         0.6290000000E+08     0.1000000000E+03
         0.6300000000E+08     0.1000000000E+03
         0.6310000000E+08     0.1000000000E+03
         0.6320000000E+08     0.1000000000E+03
         0.6320000000E+08     0.1000000000E+03
         0.6330000000E+08     0.1000000000E+03
         0.6340000000E+08     0.1000000000E+03
         0.6350000000E+08     0.1000000000E+03
         0.6360000000E+08     0.1000000000E+03
         0.6370000000E+08     0.1000000000E+03
         0.6380000000E+08     0.1000000000E+03
         0.6390000000E+08     0.1000000000E+03
         0.6390000000E+08     0.1000000000E+03
         0.6400000000E+08     0.1000000000E+03
         0.6410000000E+08     0.1000000000E+03
         0.6420000000E+08     0.1000000000E+03
         0.6430000000E+08     0.1000000000E+03
         0.6440000000E+08     0.1000000000E+03
         0.6450000000E+08     0.1000000000E+03
         0.6450000000E+08     0.1000000000E+03
         0.6460000000E+08     0.1000000000E+03
         0.6470000000E+08     0.1000000000E+03
         0.6480000000E+08     0.1000000000E+03
         0.6490000000E+08     0.1000000000E+03
         0.6500000000E+08     0.1000000000E+03
         0.6510000000E+08     0.1000000000E+03
         0.6510000000E+08     0.1000000000E+03
         0.6520000000E+08     0.1000000000E+03
         0.6530000000E+08     0.1000000000E+03
         0.6540000000E+08     0.1000000000E+03
         0.6550000000E+08     0.1000000000E+03
         0.6560000000E+08     0.1000000000E+03
         0.6570000000E+08     0.1000000000E+03
         0.6580000000E+08     0.1000000000E+03
         0.6590000000E+08     0.1000000000E+03
         0.6600000000E+08     0.1000000000E+03
         0.6610000000E+08     0.1000000000E+03
         0.6610000000E+08     0.1000000000E+03
         0.6620000000E+08     0.1000000000E+03
         0.6630000000E+08     0.1000000000E+03
         0.6640000000E+08     0.1000000000E+03
         0.6650000000E+08     0.1000000000E+03
         0.6660000000E+08     0.1000000000E+03
         0.6670000000E+08     0.1000000000E+03
         0.6670000000E+08     0.1000000000E+03
         0.6680000000E+08     0.1000000000E+03
         0.6690000000E+08     0.1000000000E+03
         0.6700000000E+08     0.1000000000E+03
         0.6710000000E+08     0.1000000000E+03
         0.6720000000E+08     0.1000000000E+03
         0.6730000000E+08     0.1000000000E+03
         0.6730000000E+08     0.1000000000E+03
         0.6740000000E+08     0.1000000000E+03
         0.6750000000E+08     0.1000000000E+03
         0.6760000000E+08     0.1000000000E+03
         0.6770000000E+08     0.1000000000E+03
         0.6780000000E+08     0.1000000000E+03
         0.6790000000E+08     0.1000000000E+03
         0.6800000000E+08     0.1000000000E+03
         0.6810000000E+08     0.1000000000E+03
         0.6820000000E+08     0.1000000000E+03
         0.6830000000E+08     0.1000000000E+03
         0.6830000000E+08     0.1000000000E+03
         0.6840000000E+08     0.1000000000E+03
         0.6850000000E+08     0.1000000000E+03
         0.6860000000E+08     0.1000000000E+03
         0.6870000000E+08     0.1000000000E+03
         0.6880000000E+08     0.1000000000E+03
         0.6890000000E+08     0.1000000000E+03
         0.6890000000E+08     0.1000000000E+03
         0.6900000000E+08     0.1000000000E+03
         0.6910000000E+08     0.1000000000E+03
         0.6920000000E+08     0.1000000000E+03
         0.6930000000E+08     0.1000000000E+03
         0.6940000000E+08     0.1000000000E+03
         0.6950000000E+08     0.1000000000E+03
         0.6950000000E+08     0.1000000000E+03
         0.6960000000E+08     0.1000000000E+03
         0.6970000000E+08     0.1000000000E+03
         0.6980000000E+08     0.1000000000E+03
         0.6990000000E+08     0.1000000000E+03
         0.7000000000E+08     0.1000000000E+03
         0.7010000000E+08     0.1000000000E+03
         0.7020000000E+08     0.1000000000E+03
         0.7030000000E+08     0.1000000000E+03
         0.7040000000E+08     0.1000000000E+03
         0.7050000000E+08     0.1000000000E+03
         0.7050000000E+08     0.1000000000E+03
         0.7060000000E+08     0.1000000000E+03
         0.7070000000E+08     0.1000000000E+03
         0.7080000000E+08     0.1000000000E+03
         0.7090000000E+08     0.1000000000E+03
         0.7100000000E+08     0.1000000000E+03
         0.7110000000E+08     0.1000000000E+03
         0.7110000000E+08     0.1000000000E+03
         0.7120000000E+08     0.1000000000E+03
         0.7130000000E+08     0.1000000000E+03
         0.7140000000E+08     0.1000000000E+03
         0.7150000000E+08     0.1000000000E+03
         0.7160000000E+08     0.1000000000E+03
         0.7170000000E+08     0.1000000000E+03
         0.7170000000E+08     0.1000000000E+03
         0.7180000000E+08     0.1000000000E+03
         0.7190000000E+08     0.1000000000E+03
         0.7200000000E+08     0.1000000000E+03
         0.7210000000E+08     0.1000000000E+03
         0.7220000000E+08     0.1000000000E+03
         0.7230000000E+08     0.1000000000E+03
         0.7240000000E+08     0.1000000000E+03
         0.7250000000E+08     0.1000000000E+03
         0.7260000000E+08     0.1000000000E+03
         0.7270000000E+08     0.1000000000E+03
         0.7270000000E+08     0.1000000000E+03
         0.7280000000E+08     0.1000000000E+03
         0.7290000000E+08     0.1000000000E+03
         0.7300000000E+08     0.1000000000E+03
         0.7310000000E+08     0.1000000000E+03
         0.7320000000E+08     0.1000000000E+03
         0.7330000000E+08     0.1000000000E+03
         0.7330000000E+08     0.1000000000E+03
         0.7340000000E+08     0.1000000000E+03
         0.7350000000E+08     0.1000000000E+03
         0.7360000000E+08     0.1000000000E+03
         0.7370000000E+08     0.1000000000E+03
         0.7380000000E+08     0.1000000000E+03
         0.7390000000E+08     0.1000000000E+03
         0.7390000000E+08     0.1000000000E+03
         0.7400000000E+08     0.1000000000E+03
         0.7410000000E+08     0.1000000000E+03
         0.7420000000E+08     0.1000000000E+03
         0.7430000000E+08     0.1000000000E+03
         0.7440000000E+08     0.1000000000E+03
         0.7450000000E+08     0.1000000000E+03
         0.7460000000E+08     0.1000000000E+03
         0.7470000000E+08     0.1000000000E+03
         0.7480000000E+08     0.1000000000E+03
         0.7490000000E+08     0.1000000000E+03
         0.7490000000E+08     0.1000000000E+03
         0.7500000000E+08     0.1000000000E+03
         0.7510000000E+08     0.1000000000E+03
         0.7520000000E+08     0.1000000000E+03
         0.7530000000E+08     0.1000000000E+03
         0.7540000000E+08     0.1000000000E+03
         0.7550000000E+08     0.1000000000E+03
         0.7550000000E+08     0.1000000000E+03
         0.7560000000E+08     0.1000000000E+03
         0.7570000000E+08     0.1000000000E+03
         0.7580000000E+08     0.1000000000E+03
         0.7590000000E+08     0.1000000000E+03
         0.7600000000E+08     0.1000000000E+03
         0.7610000000E+08     0.1000000000E+03
         0.7610000000E+08     0.1000000000E+03
         0.7620000000E+08     0.1000000000E+03
         0.7630000000E+08     0.1000000000E+03
         0.7640000000E+08     0.1000000000E+03
         0.7650000000E+08     0.1000000000E+03
         0.7660000000E+08     0.1000000000E+03
         0.7670000000E+08     0.1000000000E+03
         0.7680000000E+08     0.1000000000E+03
         0.7690000000E+08     0.1000000000E+03
         0.7700000000E+08     0.1000000000E+03
         0.7710000000E+08     0.1000000000E+03
         0.7710000000E+08     0.1000000000E+03
         0.7720000000E+08     0.1000000000E+03
         0.7730000000E+08     0.1000000000E+03
         0.7740000000E+08     0.1000000000E+03
         0.7750000000E+08     0.1000000000E+03
         0.7760000000E+08     0.1000000000E+03
         0.7770000000E+08     0.1000000000E+03
         0.7770000000E+08     0.1000000000E+03
         0.7780000000E+08     0.1000000000E+03
         0.7790000000E+08     0.1000000000E+03
         0.7800000000E+08     0.1000000000E+03
         0.7810000000E+08     0.1000000000E+03
         0.7820000000E+08     0.1000000000E+03
         0.7830000000E+08     0.1000000000E+03
         0.7830000000E+08     0.1000000000E+03
         0.7840000000E+08     0.1000000000E+03
         0.7850000000E+08     0.1000000000E+03
         0.7860000000E+08     0.1000000000E+03
         0.7870000000E+08     0.1000000000E+03
         0.7880000000E+08     0.1000000000E+03
         0.7890000000E+08     0.1000000000E+03
         0.7900000000E+08     0.1000000000E+03
         0.7910000000E+08     0.1000000000E+03
         0.7920000000E+08     0.1000000000E+03
         0.7930000000E+08     0.1000000000E+03
         0.7930000000E+08     0.1000000000E+03
         0.7940000000E+08     0.1000000000E+03
         0.7950000000E+08     0.1000000000E+03
         0.7960000000E+08     0.1000000000E+03
         0.7970000000E+08     0.1000000000E+03
         0.7980000000E+08     0.1000000000E+03
         0.7990000000E+08     0.1000000000E+03
         0.7990000000E+08     0.1000000000E+03
         0.8000000000E+08     0.1000000000E+03
         0.8010000000E+08     0.1000000000E+03
         0.8020000000E+08     0.1000000000E+03
         0.8030000000E+08     0.1000000000E+03
         0.8040000000E+08     0.1000000000E+03
         0.8050000000E+08     0.1000000000E+03
         0.8050000000E+08     0.1000000000E+03
         0.8060000000E+08     0.1000000000E+03
         0.8070000000E+08     0.1000000000E+03
         0.8080000000E+08     0.1000000000E+03
         0.8090000000E+08     0.1000000000E+03
         0.8100000000E+08     0.1000000000E+03
         0.8110000000E+08     0.1000000000E+03
         0.8120000000E+08     0.1000000000E+03
         0.8130000000E+08     0.1000000000E+03
         0.8140000000E+08     0.1000000000E+03
         0.8150000000E+08     0.1000000000E+03
         0.8150000000E+08     0.1000000000E+03
         0.8160000000E+08     0.1000000000E+03
         0.8170000000E+08     0.1000000000E+03
         0.8180000000E+08     0.1000000000E+03
         0.8190000000E+08     0.1000000000E+03
         0.8200000000E+08     0.1000000000E+03
         0.8210000000E+08     0.1000000000E+03
         0.8210000000E+08     0.1000000000E+03
         0.8220000000E+08     0.1000000000E+03
         0.8230000000E+08     0.1000000000E+03
         0.8240000000E+08     0.1000000000E+03
         0.8250000000E+08     0.1000000000E+03
         0.8260000000E+08     0.1000000000E+03
         0.8270000000E+08     0.1000000000E+03
         0.8270000000E+08     0.1000000000E+03
         0.8280000000E+08     0.1000000000E+03
         0.8290000000E+08     0.1000000000E+03
         0.8300000000E+08     0.1000000000E+03
         0.8310000000E+08     0.1000000000E+03
         0.8320000000E+08     0.1000000000E+03
         0.8330000000E+08     0.1000000000E+03
         0.8340000000E+08     0.1000000000E+03
         0.8350000000E+08     0.1000000000E+03
         0.8360000000E+08     0.1000000000E+03
         0.8370000000E+08     0.1000000000E+03
         0.8370000000E+08     0.1000000000E+03
         0.8380000000E+08     0.1000000000E+03
         0.8390000000E+08     0.1000000000E+03
         0.8400000000E+08     0.1000000000E+03
         0.8410000000E+08     0.1000000000E+03
         0.8420000000E+08     0.1000000000E+03
         0.8430000000E+08     0.1000000000E+03
         0.8430000000E+08     0.1000000000E+03
         0.8440000000E+08     0.1000000000E+03
         0.8450000000E+08     0.1000000000E+03
         0.8460000000E+08     0.1000000000E+03
         0.8470000000E+08     0.1000000000E+03
         0.8480000000E+08     0.1000000000E+03
         0.8490000000E+08     0.1000000000E+03
         0.8490000000E+08     0.1000000000E+03
         0.8500000000E+08     0.1000000000E+03
         0.8510000000E+08     0.1000000000E+03
         0.8520000000E+08     0.1000000000E+03
         0.8530000000E+08     0.1000000000E+03
         0.8540000000E+08     0.1000000000E+03
         0.8550000000E+08     0.1000000000E+03
         0.8560000000E+08     0.1000000000E+03
         0.8570000000E+08     0.1000000000E+03
         0.8580000000E+08     0.1000000000E+03
         0.8590000000E+08     0.1000000000E+03
         0.8590000000E+08     0.1000000000E+03
         0.8600000000E+08     0.1000000000E+03
         0.8610000000E+08     0.1000000000E+03
         0.8620000000E+08     0.1000000000E+03
         0.8630000000E+08     0.1000000000E+03
         0.8640000000E+08     0.1000000000E+03
         0.8650000000E+08     0.1000000000E+03
         0.8650000000E+08     0.1000000000E+03
         0.8660000000E+08     0.1000000000E+03
         0.8670000000E+08     0.1000000000E+03
         0.8680000000E+08     0.1000000000E+03
         0.8690000000E+08     0.1000000000E+03
         0.8700000000E+08     0.1000000000E+03
         0.8710000000E+08     0.1000000000E+03
         0.8710000000E+08     0.1000000000E+03
         0.8720000000E+08     0.1000000000E+03
         0.8730000000E+08     0.1000000000E+03
         0.8740000000E+08     0.1000000000E+03
         0.8750000000E+08     0.1000000000E+03
         0.8760000000E+08     0.1000000000E+03
         0.8770000000E+08     0.1000000000E+03
         0.8780000000E+08     0.1000000000E+03
         0.8790000000E+08     0.1000000000E+03
         0.8800000000E+08     0.1000000000E+03
         0.8810000000E+08     0.1000000000E+03
         0.8810000000E+08     0.1000000000E+03
         0.8820000000E+08     0.1000000000E+03
         0.8830000000E+08     0.1000000000E+03
         0.8840000000E+08     0.1000000000E+03
         0.8850000000E+08     0.1000000000E+03
         0.8860000000E+08     0.1000000000E+03
         0.8870000000E+08     0.1000000000E+03
         0.8870000000E+08     0.1000000000E+03
         0.8880000000E+08     0.1000000000E+03
         0.8890000000E+08     0.1000000000E+03
         0.8900000000E+08     0.1000000000E+03
         0.8910000000E+08     0.1000000000E+03
         0.8920000000E+08     0.1000000000E+03
         0.8930000000E+08     0.1000000000E+03
         0.8930000000E+08     0.1000000000E+03
         0.8940000000E+08     0.1000000000E+03
         0.8950000000E+08     0.1000000000E+03
         0.8960000000E+08     0.1000000000E+03
         0.8970000000E+08     0.1000000000E+03
         0.8980000000E+08     0.1000000000E+03
         0.8990000000E+08     0.1000000000E+03
         0.9000000000E+08     0.1000000000E+03
         0.9010000000E+08     0.1000000000E+03
         0.9020000000E+08     0.1000000000E+03
         0.9030000000E+08     0.1000000000E+03
         0.9030000000E+08     0.1000000000E+03
         0.9040000000E+08     0.1000000000E+03
         0.9050000000E+08     0.1000000000E+03
         0.9060000000E+08     0.1000000000E+03
         0.9070000000E+08     0.1000000000E+03
         0.9080000000E+08     0.1000000000E+03
         0.9090000000E+08     0.1000000000E+03
         0.9090000000E+08     0.1000000000E+03
         0.9100000000E+08     0.1000000000E+03
         0.9110000000E+08     0.1000000000E+03
         0.9120000000E+08     0.1000000000E+03
         0.9130000000E+08     0.1000000000E+03
         0.9140000000E+08     0.1000000000E+03
         0.9150000000E+08     0.1000000000E+03
         0.9150000000E+08     0.1000000000E+03
         0.9160000000E+08     0.1000000000E+03
         0.9170000000E+08     0.1000000000E+03
         0.9180000000E+08     0.1000000000E+03
         0.9190000000E+08     0.1000000000E+03
         0.9200000000E+08     0.1000000000E+03
         0.9210000000E+08     0.1000000000E+03
         0.9220000000E+08     0.1000000000E+03
         0.9230000000E+08     0.1000000000E+03
         0.9240000000E+08     0.1000000000E+03
         0.9250000000E+08     0.1000000000E+03
         0.9250000000E+08     0.1000000000E+03
         0.9260000000E+08     0.1000000000E+03
         0.9270000000E+08     0.1000000000E+03
         0.9280000000E+08     0.1000000000E+03
         0.9290000000E+08     0.1000000000E+03
         0.9300000000E+08     0.1000000000E+03
         0.9310000000E+08     0.1000000000E+03
         0.9310000000E+08     0.1000000000E+03
         0.9320000000E+08     0.1000000000E+03
         0.9330000000E+08     0.1000000000E+03
         0.9340000000E+08     0.1000000000E+03
         0.9350000000E+08     0.1000000000E+03
         0.9360000000E+08     0.1000000000E+03
         0.9370000000E+08     0.1000000000E+03
         0.9370000000E+08     0.1000000000E+03
         0.9380000000E+08     0.1000000000E+03
         0.9390000000E+08     0.1000000000E+03
         0.9400000000E+08     0.1000000000E+03
         0.9410000000E+08     0.1000000000E+03
         0.9420000000E+08     0.1000000000E+03
         0.9430000000E+08     0.1000000000E+03
         0.9440000000E+08     0.1000000000E+03
         0.9450000000E+08     0.1000000000E+03
         0.9460000000E+08     0.1000000000E+03
         0.9470000000E+08     0.1000000000E+03
         0.9470000000E+08     0.1000000000E+03
         0.9480000000E+08     0.1000000000E+03
         0.9490000000E+08     0.1000000000E+03
         0.9500000000E+08     0.1000000000E+03
         0.9510000000E+08     0.1000000000E+03
         0.9520000000E+08     0.1000000000E+03
         0.9530000000E+08     0.1000000000E+03
         0.9530000000E+08     0.1000000000E+03
         0.9540000000E+08     0.1000000000E+03
         0.9550000000E+08     0.1000000000E+03
         0.9560000000E+08     0.1000000000E+03
         0.9570000000E+08     0.1000000000E+03
         0.9580000000E+08     0.1000000000E+03
         0.9590000000E+08     0.1000000000E+03
         0.9590000000E+08     0.1000000000E+03
         0.9600000000E+08     0.1000000000E+03
         0.9610000000E+08     0.1000000000E+03
         0.9620000000E+08     0.1000000000E+03
         0.9630000000E+08     0.1000000000E+03
         0.9640000000E+08     0.1000000000E+03
         0.9650000000E+08     0.1000000000E+03
         0.9660000000E+08     0.1000000000E+03
         0.9670000000E+08     0.1000000000E+03
         0.9680000000E+08     0.1000000000E+03
         0.9690000000E+08     0.1000000000E+03
         0.9690000000E+08     0.1000000000E+03
         0.9700000000E+08     0.1000000000E+03
         0.9710000000E+08     0.1000000000E+03
         0.9720000000E+08     0.1000000000E+03
         0.9730000000E+08     0.1000000000E+03
         0.9740000000E+08     0.1000000000E+03
         0.9750000000E+08     0.1000000000E+03
         0.9750000000E+08     0.1000000000E+03
         0.9760000000E+08     0.1000000000E+03
         0.9770000000E+08     0.1000000000E+03
         0.9780000000E+08     0.1000000000E+03
         0.9790000000E+08     0.1000000000E+03
         0.9800000000E+08     0.1000000000E+03
         0.9810000000E+08     0.1000000000E+03
         0.9810000000E+08     0.1000000000E+03
         0.9820000000E+08     0.1000000000E+03
         0.9830000000E+08     0.1000000000E+03
         0.9840000000E+08     0.1000000000E+03
         0.9850000000E+08     0.1000000000E+03
         0.9860000000E+08     0.1000000000E+03
         0.9870000000E+08     0.1000000000E+03
         0.9880000000E+08     0.1000000000E+03
         0.9890000000E+08     0.1000000000E+03
         0.9900000000E+08     0.1000000000E+03
         0.9910000000E+08     0.1000000000E+03
         0.9910000000E+08     0.1000000000E+03
         0.9920000000E+08     0.1000000000E+03
         0.9930000000E+08     0.1000000000E+03
         0.9940000000E+08     0.1000000000E+03
         0.9950000000E+08     0.1000000000E+03
         0.9960000000E+08     0.1000000000E+03
         0.9970000000E+08     0.1000000000E+03
         0.9970000000E+08     0.1000000000E+03
         0.9980000000E+08     0.1000000000E+03
         0.9990000000E+08     0.1000000000E+03
         0.1000000000E+09     0.1000000000E+03
         0.1001000000E+09     0.1000000000E+03
         0.1002000000E+09     0.1000000000E+03
         0.1003000000E+09     0.1000000000E+03
         0.1003000000E+09     0.1000000000E+03
         0.1004000000E+09     0.1000000000E+03
         0.1005000000E+09     0.1000000000E+03
         0.1006000000E+09     0.1000000000E+03
         0.1007000000E+09     0.1000000000E+03
         0.1008000000E+09     0.1000000000E+03
         0.1009000000E+09     0.1000000000E+03
         0.1010000000E+09     0.1000000000E+03
         0.1011000000E+09     0.1000000000E+03
         0.1012000000E+09     0.1000000000E+03
         0.1013000000E+09     0.1000000000E+03
         0.1013000000E+09     0.1000000000E+03
         0.1014000000E+09     0.1000000000E+03
         0.1015000000E+09     0.1000000000E+03
         0.1016000000E+09     0.1000000000E+03
         0.1017000000E+09     0.1000000000E+03
         0.1018000000E+09     0.1000000000E+03
         0.1019000000E+09     0.1000000000E+03
         0.1019000000E+09     0.1000000000E+03
         0.1020000000E+09     0.1000000000E+03
         0.1021000000E+09     0.1000000000E+03
         0.1022000000E+09     0.1000000000E+03
         0.1023000000E+09     0.1000000000E+03
         0.1024000000E+09     0.1000000000E+03
         0.1025000000E+09     0.1000000000E+03
         0.1025000000E+09     0.1000000000E+03
         0.1026000000E+09     0.1000000000E+03
         0.1027000000E+09     0.1000000000E+03
         0.1028000000E+09     0.1000000000E+03
         0.1029000000E+09     0.1000000000E+03
         0.1030000000E+09     0.1000000000E+03
         0.1031000000E+09     0.1000000000E+03
         0.1032000000E+09     0.1000000000E+03
         0.1033000000E+09     0.1000000000E+03
         0.1034000000E+09     0.1000000000E+03
         0.1035000000E+09     0.1000000000E+03
         0.1035000000E+09     0.1000000000E+03
         0.1036000000E+09     0.1000000000E+03
         0.1037000000E+09     0.1000000000E+03
         0.1038000000E+09     0.1000000000E+03
         0.1039000000E+09     0.1000000000E+03
         0.1040000000E+09     0.1000000000E+03
         0.1041000000E+09     0.1000000000E+03
         0.1041000000E+09     0.1000000000E+03
         0.1042000000E+09     0.1000000000E+03
         0.1043000000E+09     0.1000000000E+03
         0.1044000000E+09     0.1000000000E+03
         0.1045000000E+09     0.1000000000E+03
         0.1046000000E+09     0.1000000000E+03
         0.1047000000E+09     0.1000000000E+03
         0.1047000000E+09     0.1000000000E+03
         0.1048000000E+09     0.1000000000E+03
         0.1049000000E+09     0.1000000000E+03
         0.1050000000E+09     0.1000000000E+03
         0.1051000000E+09     0.1000000000E+03
         0.1052000000E+09     0.1000000000E+03
         0.1053000000E+09     0.1000000000E+03
         0.1054000000E+09     0.1000000000E+03
         0.1055000000E+09     0.1000000000E+03
         0.1056000000E+09     0.1000000000E+03
         0.1057000000E+09     0.1000000000E+03
         0.1057000000E+09     0.1000000000E+03
         0.1058000000E+09     0.1000000000E+03
         0.1059000000E+09     0.1000000000E+03
         0.1060000000E+09     0.1000000000E+03
         0.1061000000E+09     0.1000000000E+03
         0.1062000000E+09     0.1000000000E+03
         0.1063000000E+09     0.1000000000E+03
         0.1063000000E+09     0.1000000000E+03
         0.1064000000E+09     0.1000000000E+03
         0.1065000000E+09     0.1000000000E+03
         0.1066000000E+09     0.1000000000E+03
         0.1067000000E+09     0.1000000000E+03
         0.1068000000E+09     0.1000000000E+03
         0.1069000000E+09     0.1000000000E+03
         0.1069000000E+09     0.1000000000E+03
         0.1070000000E+09     0.1000000000E+03
         0.1071000000E+09     0.1000000000E+03
         0.1072000000E+09     0.1000000000E+03
         0.1073000000E+09     0.1000000000E+03
         0.1074000000E+09     0.1000000000E+03
         0.1075000000E+09     0.1000000000E+03
         0.1076000000E+09     0.1000000000E+03
         0.1077000000E+09     0.1000000000E+03
         0.1078000000E+09     0.1000000000E+03
         0.1079000000E+09     0.1000000000E+03
         0.1079000000E+09     0.1000000000E+03
         0.1080000000E+09     0.1000000000E+03
         0.1081000000E+09     0.1000000000E+03
         0.1082000000E+09     0.1000000000E+03
         0.1083000000E+09     0.1000000000E+03
         0.1084000000E+09     0.1000000000E+03
         0.1085000000E+09     0.1000000000E+03
         0.1085000000E+09     0.1000000000E+03
         0.1086000000E+09     0.1000000000E+03
         0.1087000000E+09     0.1000000000E+03
         0.1088000000E+09     0.1000000000E+03
         0.1089000000E+09     0.1000000000E+03
         0.1090000000E+09     0.1000000000E+03
         0.1091000000E+09     0.1000000000E+03
         0.1091000000E+09     0.1000000000E+03
         0.1092000000E+09     0.1000000000E+03
         0.1093000000E+09     0.1000000000E+03
         0.1094000000E+09     0.1000000000E+03
         0.1095000000E+09     0.1000000000E+03
         0.1096000000E+09     0.1000000000E+03
         0.1097000000E+09     0.1000000000E+03
         0.1098000000E+09     0.1000000000E+03
         0.1099000000E+09     0.1000000000E+03
         0.1100000000E+09     0.1000000000E+03
         0.1101000000E+09     0.1000000000E+03
         0.1101000000E+09     0.1000000000E+03
         0.1102000000E+09     0.1000000000E+03
         0.1103000000E+09     0.1000000000E+03
         0.1104000000E+09     0.1000000000E+03
         0.1105000000E+09     0.1000000000E+03
         0.1106000000E+09     0.1000000000E+03
         0.1107000000E+09     0.1000000000E+03
         0.1107000000E+09     0.1000000000E+03
         0.1108000000E+09     0.1000000000E+03
         0.1109000000E+09     0.1000000000E+03
         0.1110000000E+09     0.1000000000E+03
         0.1111000000E+09     0.1000000000E+03
         0.1112000000E+09     0.1000000000E+03
         0.1113000000E+09     0.1000000000E+03
         0.1113000000E+09     0.1000000000E+03
         0.1114000000E+09     0.1000000000E+03
         0.1115000000E+09     0.1000000000E+03
         0.1116000000E+09     0.1000000000E+03
         0.1117000000E+09     0.1000000000E+03
         0.1118000000E+09     0.1000000000E+03
         0.1119000000E+09     0.1000000000E+03
         0.1120000000E+09     0.1000000000E+03
         0.1121000000E+09     0.1000000000E+03
         0.1122000000E+09     0.1000000000E+03
         0.1123000000E+09     0.1000000000E+03
         0.1123000000E+09     0.1000000000E+03
         0.1124000000E+09     0.1000000000E+03
         0.1125000000E+09     0.1000000000E+03
         0.1126000000E+09     0.1000000000E+03
         0.1127000000E+09     0.1000000000E+03
         0.1128000000E+09     0.1000000000E+03
         0.1129000000E+09     0.1000000000E+03
         0.1129000000E+09     0.1000000000E+03
         0.1130000000E+09     0.1000000000E+03
         0.1131000000E+09     0.1000000000E+03
         0.1132000000E+09     0.1000000000E+03
         0.1133000000E+09     0.1000000000E+03
         0.1134000000E+09     0.1000000000E+03
         0.1135000000E+09     0.1000000000E+03
         0.1135000000E+09     0.1000000000E+03
         0.1136000000E+09     0.1000000000E+03
         0.1137000000E+09     0.1000000000E+03
         0.1138000000E+09     0.1000000000E+03
         0.1139000000E+09     0.1000000000E+03
         0.1140000000E+09     0.1000000000E+03
         0.1141000000E+09     0.1000000000E+03
         0.1142000000E+09     0.1000000000E+03
         0.1143000000E+09     0.1000000000E+03
         0.1144000000E+09     0.1000000000E+03
         0.1145000000E+09     0.1000000000E+03
         0.1145000000E+09     0.1000000000E+03
         0.1146000000E+09     0.1000000000E+03
         0.1147000000E+09     0.1000000000E+03
         0.1148000000E+09     0.1000000000E+03
         0.1149000000E+09     0.1000000000E+03
         0.1150000000E+09     0.1000000000E+03
         0.1151000000E+09     0.1000000000E+03
         0.1151000000E+09     0.1000000000E+03
         0.1152000000E+09     0.1000000000E+03
         0.1153000000E+09     0.1000000000E+03
         0.1154000000E+09     0.1000000000E+03
         0.1155000000E+09     0.1000000000E+03
         0.1156000000E+09     0.1000000000E+03
         0.1157000000E+09     0.1000000000E+03
         0.1157000000E+09     0.1000000000E+03
         0.1158000000E+09     0.1000000000E+03
         0.1159000000E+09     0.1000000000E+03
         0.1160000000E+09     0.1000000000E+03
         0.1161000000E+09     0.1000000000E+03
         0.1162000000E+09     0.1000000000E+03
         0.1163000000E+09     0.1000000000E+03
         0.1164000000E+09     0.1000000000E+03
         0.1165000000E+09     0.1000000000E+03
         0.1166000000E+09     0.1000000000E+03
         0.1167000000E+09     0.1000000000E+03
         0.1167000000E+09     0.1000000000E+03
         0.1168000000E+09     0.1000000000E+03
         0.1169000000E+09     0.1000000000E+03
         0.1170000000E+09     0.1000000000E+03
         0.1171000000E+09     0.1000000000E+03
         0.1172000000E+09     0.1000000000E+03
         0.1173000000E+09     0.1000000000E+03
         0.1173000000E+09     0.1000000000E+03
         0.1174000000E+09     0.1000000000E+03
         0.1175000000E+09     0.1000000000E+03
         0.1176000000E+09     0.1000000000E+03
         0.1177000000E+09     0.1000000000E+03
         0.1178000000E+09     0.1000000000E+03
         0.1179000000E+09     0.1000000000E+03
         0.1179000000E+09     0.1000000000E+03
         0.1180000000E+09     0.1000000000E+03
         0.1181000000E+09     0.1000000000E+03
         0.1182000000E+09     0.1000000000E+03
         0.1183000000E+09     0.1000000000E+03
         0.1184000000E+09     0.1000000000E+03
         0.1185000000E+09     0.1000000000E+03
         0.1186000000E+09     0.1000000000E+03
         0.1187000000E+09     0.1000000000E+03
         0.1188000000E+09     0.1000000000E+03
         0.1189000000E+09     0.1000000000E+03
         0.1189000000E+09     0.1000000000E+03
         0.1190000000E+09     0.1000000000E+03
         0.1191000000E+09     0.1000000000E+03
         0.1192000000E+09     0.1000000000E+03
         0.1193000000E+09     0.1000000000E+03
         0.1194000000E+09     0.1000000000E+03
         0.1195000000E+09     0.1000000000E+03
         0.1195000000E+09     0.1000000000E+03
         0.1196000000E+09     0.1000000000E+03
         0.1197000000E+09     0.1000000000E+03
         0.1198000000E+09     0.1000000000E+03
         0.1199000000E+09     0.1000000000E+03
         0.1200000000E+09     0.1000000000E+03
         0.1201000000E+09     0.1000000000E+03
         0.1201000000E+09     0.1000000000E+03
         0.1202000000E+09     0.1000000000E+03
         0.1203000000E+09     0.1000000000E+03
         0.1204000000E+09     0.1000000000E+03
         0.1205000000E+09     0.1000000000E+03
         0.1206000000E+09     0.1000000000E+03
         0.1207000000E+09     0.1000000000E+03
         0.1208000000E+09     0.1000000000E+03
         0.1209000000E+09     0.1000000000E+03
         0.1210000000E+09     0.1000000000E+03
         0.1211000000E+09     0.1000000000E+03
         0.1211000000E+09     0.1000000000E+03
         0.1212000000E+09     0.1000000000E+03
         0.1213000000E+09     0.1000000000E+03
         0.1214000000E+09     0.1000000000E+03
         0.1215000000E+09     0.1000000000E+03
         0.1216000000E+09     0.1000000000E+03
         0.1217000000E+09     0.1000000000E+03
         0.1217000000E+09     0.1000000000E+03
         0.1218000000E+09     0.1000000000E+03
         0.1219000000E+09     0.1000000000E+03
         0.1220000000E+09     0.1000000000E+03
         0.1221000000E+09     0.1000000000E+03
         0.1222000000E+09     0.1000000000E+03
         0.1223000000E+09     0.1000000000E+03
         0.1223000000E+09     0.1000000000E+03
         0.1224000000E+09     0.1000000000E+03
         0.1225000000E+09     0.1000000000E+03
         0.1226000000E+09     0.1000000000E+03
         0.1227000000E+09     0.1000000000E+03
         0.1228000000E+09     0.1000000000E+03
         0.1229000000E+09     0.1000000000E+03
         0.1230000000E+09     0.1000000000E+03
         0.1231000000E+09     0.1000000000E+03
         0.1232000000E+09     0.1000000000E+03
         0.1233000000E+09     0.1000000000E+03
         0.1233000000E+09     0.1000000000E+03
         0.1234000000E+09     0.1000000000E+03
         0.1235000000E+09     0.1000000000E+03
         0.1236000000E+09     0.1000000000E+03
         0.1237000000E+09     0.1000000000E+03
         0.1238000000E+09     0.1000000000E+03
         0.1239000000E+09     0.1000000000E+03
         0.1239000000E+09     0.1000000000E+03
         0.1240000000E+09     0.1000000000E+03
         0.1241000000E+09     0.1000000000E+03
         0.1242000000E+09     0.1000000000E+03
         0.1243000000E+09     0.1000000000E+03
         0.1244000000E+09     0.1000000000E+03
         0.1245000000E+09     0.1000000000E+03
         0.1245000000E+09     0.1000000000E+03
         0.1246000000E+09     0.1000000000E+03
         0.1247000000E+09     0.1000000000E+03
         0.1248000000E+09     0.1000000000E+03
         0.1249000000E+09     0.1000000000E+03
         0.1250000000E+09     0.1000000000E+03
         0.1251000000E+09     0.1000000000E+03
         0.1252000000E+09     0.1000000000E+03
         0.1253000000E+09     0.1000000000E+03
         0.1254000000E+09     0.1000000000E+03
         0.1255000000E+09     0.1000000000E+03
         0.1255000000E+09     0.1000000000E+03
         0.1256000000E+09     0.1000000000E+03
         0.1257000000E+09     0.1000000000E+03
         0.1258000000E+09     0.1000000000E+03
         0.1259000000E+09     0.1000000000E+03
         0.1260000000E+09     0.1000000000E+03



            AREAL INFILTRATION RATE
 READING ON UNIT   19 WITH FORMAT: (10F4.0)            

            1           2           3           4           5           6           7           8           9          10
 ........................................................................................................................
   1   1.0000E-10  2.0000E-10   0.000       0.000       0.000       0.000       0.000       0.000       0.000       0.000    
   2   2.0000E-10  1.0000E-10  2.0000E-10   0.000       0.000      8.0000E-10  8.0000E-10  5.0000E-10   0.000       0.000    
   3    0.000      5.0000E-10  1.0000E-10  1.0000E-10  8.0000E-10  8.0000E-10  5.0000E-10  5.0000E-10   0.000       0.000    
   4   8.0000E-10  5.0000E-10  1.0000E-10  1.0000E-10  1.0000E-10  1.0000E-10  1.0000E-10  1.0000E-10  2.0000E-10   0.000    
   5   8.0000E-10  5.0000E-10  1.0000E-10  1.0000E-10  1.0000E-10  1.0000E-10  1.0000E-10  1.0000E-10  1.0000E-10  1.0000E-10
   6   8.0000E-10  5.0000E-10  5.0000E-10  2.0000E-10  2.0000E-10  1.0000E-10  1.0000E-10  1.0000E-10  1.0000E-10  5.0000E-10
   7   8.0000E-10  5.0000E-10  5.0000E-10  2.0000E-10  2.0000E-10  1.0000E-10  1.0000E-10  2.0000E-10  2.0000E-10   0.000    
   8    0.000      5.0000E-10  5.0000E-10  2.0000E-10  2.0000E-10  1.0000E-10  1.0000E-10  2.0000E-10  5.0000E-10   0.000    
   9    0.000      5.0000E-10  5.0000E-10  2.0000E-10  2.0000E-10  1.0000E-10  1.0000E-10  2.0000E-10  5.0000E-10   0.000    
  10    0.000      5.0000E-10  5.0000E-10  2.0000E-10  2.0000E-10  1.0000E-10  1.0000E-10  2.0000E-10  5.0000E-10  8.0000E-10
  11    0.000      1.0000E-10  1.0000E-10  1.0000E-10  1.0000E-10  1.0000E-10  1.0000E-10  2.0000E-10  5.0000E-10   0.000    
  12   1.0000E-10  1.0000E-10  1.0000E-10  1.0000E-10  1.0000E-10  1.0000E-10  1.0000E-10  1.0000E-10  2.0000E-10   0.000    
  13   1.0000E-10  1.0000E-10  2.0000E-10  2.0000E-10  2.0000E-10  2.0000E-10  2.0000E-10  1.0000E-10  1.0000E-10   0.000    
  14    0.000      2.0000E-10  5.0000E-10  5.0000E-10  5.0000E-10  5.0000E-10  5.0000E-10  2.0000E-10  1.0000E-10   0.000    
  15    0.000       0.000      8.0000E-10  8.0000E-10  8.0000E-10  8.0000E-10   0.000       0.000       0.000       0.000    

                  ET RATE =  1.000000E-08

      ET EXTINCTION DEPTH =  0.500000    

 EXTINCTION WATER CONTENT =  0.200000    

EXTINCTION WATER CONTENT FOR CELL AT ROW     1, COLUMN     1 IS LESS THAN RESIDUAL WATER CONTENT-- SETTING EXTINCTION WATER CONTENT EQUAL TO RESIDUAL WATER CONTENT

EXTINCTION WATER CONTENT FOR CELL AT ROW     1, COLUMN     2 IS LESS THAN RESIDUAL WATER CONTENT-- SETTING EXTINCTION WATER CONTENT EQUAL TO RESIDUAL WATER CONTENT

EXTINCTION WATER CONTENT FOR CELL AT ROW     2, COLUMN     1 IS LESS THAN RESIDUAL WATER CONTENT-- SETTING EXTINCTION WATER CONTENT EQUAL TO RESIDUAL WATER CONTENT

EXTINCTION WATER CONTENT FOR CELL AT ROW     2, COLUMN     2 IS LESS THAN RESIDUAL WATER CONTENT-- SETTING EXTINCTION WATER CONTENT EQUAL TO RESIDUAL WATER CONTENT

EXTINCTION WATER CONTENT FOR CELL AT ROW     2, COLUMN     3 IS LESS THAN RESIDUAL WATER CONTENT-- SETTING EXTINCTION WATER CONTENT EQUAL TO RESIDUAL WATER CONTENT

EXTINCTION WATER CONTENT FOR CELL AT ROW     2, COLUMN     6 IS LESS THAN RESIDUAL WATER CONTENT-- SETTING EXTINCTION WATER CONTENT EQUAL TO RESIDUAL WATER CONTENT

EXTINCTION WATER CONTENT FOR CELL AT ROW     2, COLUMN     7 IS LESS THAN RESIDUAL WATER CONTENT-- SETTING EXTINCTION WATER CONTENT EQUAL TO RESIDUAL WATER CONTENT

EXTINCTION WATER CONTENT FOR CELL AT ROW     2, COLUMN     8 IS LESS THAN RESIDUAL WATER CONTENT-- SETTING EXTINCTION WATER CONTENT EQUAL TO RESIDUAL WATER CONTENT

EXTINCTION WATER CONTENT FOR CELL AT ROW     3, COLUMN     2 IS LESS THAN RESIDUAL WATER CONTENT-- SETTING EXTINCTION WATER CONTENT EQUAL TO RESIDUAL WATER CONTENT

EXTINCTION WATER CONTENT FOR CELL AT ROW     3, COLUMN     3 IS LESS THAN RESIDUAL WATER CONTENT-- SETTING EXTINCTION WATER CONTENT EQUAL TO RESIDUAL WATER CONTENT

EXTINCTION WATER CONTENT FOR CELL AT ROW     3, COLUMN     4 IS LESS THAN RESIDUAL WATER CONTENT-- SETTING EXTINCTION WATER CONTENT EQUAL TO RESIDUAL WATER CONTENT

EXTINCTION WATER CONTENT FOR CELL AT ROW     3, COLUMN     5 IS LESS THAN RESIDUAL WATER CONTENT-- SETTING EXTINCTION WATER CONTENT EQUAL TO RESIDUAL WATER CONTENT

EXTINCTION WATER CONTENT FOR CELL AT ROW     3, COLUMN     6 IS LESS THAN RESIDUAL WATER CONTENT-- SETTING EXTINCTION WATER CONTENT EQUAL TO RESIDUAL WATER CONTENT

EXTINCTION WATER CONTENT FOR CELL AT ROW     3, COLUMN     7 IS LESS THAN RESIDUAL WATER CONTENT-- SETTING EXTINCTION WATER CONTENT EQUAL TO RESIDUAL WATER CONTENT

EXTINCTION WATER CONTENT FOR CELL AT ROW     3, COLUMN     8 IS LESS THAN RESIDUAL WATER CONTENT-- SETTING EXTINCTION WATER CONTENT EQUAL TO RESIDUAL WATER CONTENT

EXTINCTION WATER CONTENT FOR CELL AT ROW     4, COLUMN     1 IS LESS THAN RESIDUAL WATER CONTENT-- SETTING EXTINCTION WATER CONTENT EQUAL TO RESIDUAL WATER CONTENT

EXTINCTION WATER CONTENT FOR CELL AT ROW     4, COLUMN     2 IS LESS THAN RESIDUAL WATER CONTENT-- SETTING EXTINCTION WATER CONTENT EQUAL TO RESIDUAL WATER CONTENT

EXTINCTION WATER CONTENT FOR CELL AT ROW     4, COLUMN     3 IS LESS THAN RESIDUAL WATER CONTENT-- SETTING EXTINCTION WATER CONTENT EQUAL TO RESIDUAL WATER CONTENT

EXTINCTION WATER CONTENT FOR CELL AT ROW     4, COLUMN     4 IS LESS THAN RESIDUAL WATER CONTENT-- SETTING EXTINCTION WATER CONTENT EQUAL TO RESIDUAL WATER CONTENT

EXTINCTION WATER CONTENT FOR CELL AT ROW     4, COLUMN     5 IS LESS THAN RESIDUAL WATER CONTENT-- SETTING EXTINCTION WATER CONTENT EQUAL TO RESIDUAL WATER CONTENT

EXTINCTION WATER CONTENT FOR CELL AT ROW     4, COLUMN     6 IS LESS THAN RESIDUAL WATER CONTENT-- SETTING EXTINCTION WATER CONTENT EQUAL TO RESIDUAL WATER CONTENT

EXTINCTION WATER CONTENT FOR CELL AT ROW     4, COLUMN     7 IS LESS THAN RESIDUAL WATER CONTENT-- SETTING EXTINCTION WATER CONTENT EQUAL TO RESIDUAL WATER CONTENT

EXTINCTION WATER CONTENT FOR CELL AT ROW     4, COLUMN     8 IS LESS THAN RESIDUAL WATER CONTENT-- SETTING EXTINCTION WATER CONTENT EQUAL TO RESIDUAL WATER CONTENT

EXTINCTION WATER CONTENT FOR CELL AT ROW     4, COLUMN     9 IS LESS THAN RESIDUAL WATER CONTENT-- SETTING EXTINCTION WATER CONTENT EQUAL TO RESIDUAL WATER CONTENT

EXTINCTION WATER CONTENT FOR CELL AT ROW     5, COLUMN     1 IS LESS THAN RESIDUAL WATER CONTENT-- SETTING EXTINCTION WATER CONTENT EQUAL TO RESIDUAL WATER CONTENT

EXTINCTION WATER CONTENT FOR CELL AT ROW     5, COLUMN     2 IS LESS THAN RESIDUAL WATER CONTENT-- SETTING EXTINCTION WATER CONTENT EQUAL TO RESIDUAL WATER CONTENT

EXTINCTION WATER CONTENT FOR CELL AT ROW     5, COLUMN     3 IS LESS THAN RESIDUAL WATER CONTENT-- SETTING EXTINCTION WATER CONTENT EQUAL TO RESIDUAL WATER CONTENT

EXTINCTION WATER CONTENT FOR CELL AT ROW     5, COLUMN     4 IS LESS THAN RESIDUAL WATER CONTENT-- SETTING EXTINCTION WATER CONTENT EQUAL TO RESIDUAL WATER CONTENT

EXTINCTION WATER CONTENT FOR CELL AT ROW     5, COLUMN     5 IS LESS THAN RESIDUAL WATER CONTENT-- SETTING EXTINCTION WATER CONTENT EQUAL TO RESIDUAL WATER CONTENT

EXTINCTION WATER CONTENT FOR CELL AT ROW     5, COLUMN     6 IS LESS THAN RESIDUAL WATER CONTENT-- SETTING EXTINCTION WATER CONTENT EQUAL TO RESIDUAL WATER CONTENT

EXTINCTION WATER CONTENT FOR CELL AT ROW     5, COLUMN     7 IS LESS THAN RESIDUAL WATER CONTENT-- SETTING EXTINCTION WATER CONTENT EQUAL TO RESIDUAL WATER CONTENT

EXTINCTION WATER CONTENT FOR CELL AT ROW     5, COLUMN     8 IS LESS THAN RESIDUAL WATER CONTENT-- SETTING EXTINCTION WATER CONTENT EQUAL TO RESIDUAL WATER CONTENT

EXTINCTION WATER CONTENT FOR CELL AT ROW     5, COLUMN     9 IS LESS THAN RESIDUAL WATER CONTENT-- SETTING EXTINCTION WATER CONTENT EQUAL TO RESIDUAL WATER CONTENT

EXTINCTION WATER CONTENT FOR CELL AT ROW     5, COLUMN    10 IS LESS THAN RESIDUAL WATER CONTENT-- SETTING EXTINCTION WATER CONTENT EQUAL TO RESIDUAL WATER CONTENT

EXTINCTION WATER CONTENT FOR CELL AT ROW     6, COLUMN     1 IS LESS THAN RESIDUAL WATER CONTENT-- SETTING EXTINCTION WATER CONTENT EQUAL TO RESIDUAL WATER CONTENT

EXTINCTION WATER CONTENT FOR CELL AT ROW     6, COLUMN     2 IS LESS THAN RESIDUAL WATER CONTENT-- SETTING EXTINCTION WATER CONTENT EQUAL TO RESIDUAL WATER CONTENT

EXTINCTION WATER CONTENT FOR CELL AT ROW     6, COLUMN     3 IS LESS THAN RESIDUAL WATER CONTENT-- SETTING EXTINCTION WATER CONTENT EQUAL TO RESIDUAL WATER CONTENT

EXTINCTION WATER CONTENT FOR CELL AT ROW     6, COLUMN     4 IS LESS THAN RESIDUAL WATER CONTENT-- SETTING EXTINCTION WATER CONTENT EQUAL TO RESIDUAL WATER CONTENT

EXTINCTION WATER CONTENT FOR CELL AT ROW     6, COLUMN     5 IS LESS THAN RESIDUAL WATER CONTENT-- SETTING EXTINCTION WATER CONTENT EQUAL TO RESIDUAL WATER CONTENT

EXTINCTION WATER CONTENT FOR CELL AT ROW     6, COLUMN     6 IS LESS THAN RESIDUAL WATER CONTENT-- SETTING EXTINCTION WATER CONTENT EQUAL TO RESIDUAL WATER CONTENT

EXTINCTION WATER CONTENT FOR CELL AT ROW     6, COLUMN     7 IS LESS THAN RESIDUAL WATER CONTENT-- SETTING EXTINCTION WATER CONTENT EQUAL TO RESIDUAL WATER CONTENT

EXTINCTION WATER CONTENT FOR CELL AT ROW     6, COLUMN     8 IS LESS THAN RESIDUAL WATER CONTENT-- SETTING EXTINCTION WATER CONTENT EQUAL TO RESIDUAL WATER CONTENT

EXTINCTION WATER CONTENT FOR CELL AT ROW     6, COLUMN     9 IS LESS THAN RESIDUAL WATER CONTENT-- SETTING EXTINCTION WATER CONTENT EQUAL TO RESIDUAL WATER CONTENT

EXTINCTION WATER CONTENT FOR CELL AT ROW     6, COLUMN    10 IS LESS THAN RESIDUAL WATER CONTENT-- SETTING EXTINCTION WATER CONTENT EQUAL TO RESIDUAL WATER CONTENT

EXTINCTION WATER CONTENT FOR CELL AT ROW     7, COLUMN     1 IS LESS THAN RESIDUAL WATER CONTENT-- SETTING EXTINCTION WATER CONTENT EQUAL TO RESIDUAL WATER CONTENT

EXTINCTION WATER CONTENT FOR CELL AT ROW     7, COLUMN     2 IS LESS THAN RESIDUAL WATER CONTENT-- SETTING EXTINCTION WATER CONTENT EQUAL TO RESIDUAL WATER CONTENT

EXTINCTION WATER CONTENT FOR CELL AT ROW     7, COLUMN     3 IS LESS THAN RESIDUAL WATER CONTENT-- SETTING EXTINCTION WATER CONTENT EQUAL TO RESIDUAL WATER CONTENT

EXTINCTION WATER CONTENT FOR CELL AT ROW     7, COLUMN     4 IS LESS THAN RESIDUAL WATER CONTENT-- SETTING EXTINCTION WATER CONTENT EQUAL TO RESIDUAL WATER CONTENT

EXTINCTION WATER CONTENT FOR CELL AT ROW     7, COLUMN     5 IS LESS THAN RESIDUAL WATER CONTENT-- SETTING EXTINCTION WATER CONTENT EQUAL TO RESIDUAL WATER CONTENT

EXTINCTION WATER CONTENT FOR CELL AT ROW     7, COLUMN     6 IS LESS THAN RESIDUAL WATER CONTENT-- SETTING EXTINCTION WATER CONTENT EQUAL TO RESIDUAL WATER CONTENT

EXTINCTION WATER CONTENT FOR CELL AT ROW     7, COLUMN     7 IS LESS THAN RESIDUAL WATER CONTENT-- SETTING EXTINCTION WATER CONTENT EQUAL TO RESIDUAL WATER CONTENT

EXTINCTION WATER CONTENT FOR CELL AT ROW     7, COLUMN     8 IS LESS THAN RESIDUAL WATER CONTENT-- SETTING EXTINCTION WATER CONTENT EQUAL TO RESIDUAL WATER CONTENT

EXTINCTION WATER CONTENT FOR CELL AT ROW     7, COLUMN     9 IS LESS THAN RESIDUAL WATER CONTENT-- SETTING EXTINCTION WATER CONTENT EQUAL TO RESIDUAL WATER CONTENT

EXTINCTION WATER CONTENT FOR CELL AT ROW     8, COLUMN     2 IS LESS THAN RESIDUAL WATER CONTENT-- SETTING EXTINCTION WATER CONTENT EQUAL TO RESIDUAL WATER CONTENT

EXTINCTION WATER CONTENT FOR CELL AT ROW     8, COLUMN     3 IS LESS THAN RESIDUAL WATER CONTENT-- SETTING EXTINCTION WATER CONTENT EQUAL TO RESIDUAL WATER CONTENT

EXTINCTION WATER CONTENT FOR CELL AT ROW     8, COLUMN     4 IS LESS THAN RESIDUAL WATER CONTENT-- SETTING EXTINCTION WATER CONTENT EQUAL TO RESIDUAL WATER CONTENT

EXTINCTION WATER CONTENT FOR CELL AT ROW     8, COLUMN     5 IS LESS THAN RESIDUAL WATER CONTENT-- SETTING EXTINCTION WATER CONTENT EQUAL TO RESIDUAL WATER CONTENT

EXTINCTION WATER CONTENT FOR CELL AT ROW     8, COLUMN     6 IS LESS THAN RESIDUAL WATER CONTENT-- SETTING EXTINCTION WATER CONTENT EQUAL TO RESIDUAL WATER CONTENT

EXTINCTION WATER CONTENT FOR CELL AT ROW     8, COLUMN     7 IS LESS THAN RESIDUAL WATER CONTENT-- SETTING EXTINCTION WATER CONTENT EQUAL TO RESIDUAL WATER CONTENT

EXTINCTION WATER CONTENT FOR CELL AT ROW     8, COLUMN     8 IS LESS THAN RESIDUAL WATER CONTENT-- SETTING EXTINCTION WATER CONTENT EQUAL TO RESIDUAL WATER CONTENT

EXTINCTION WATER CONTENT FOR CELL AT ROW     8, COLUMN     9 IS LESS THAN RESIDUAL WATER CONTENT-- SETTING EXTINCTION WATER CONTENT EQUAL TO RESIDUAL WATER CONTENT

EXTINCTION WATER CONTENT FOR CELL AT ROW     9, COLUMN     2 IS LESS THAN RESIDUAL WATER CONTENT-- SETTING EXTINCTION WATER CONTENT EQUAL TO RESIDUAL WATER CONTENT

EXTINCTION WATER CONTENT FOR CELL AT ROW     9, COLUMN     3 IS LESS THAN RESIDUAL WATER CONTENT-- SETTING EXTINCTION WATER CONTENT EQUAL TO RESIDUAL WATER CONTENT

EXTINCTION WATER CONTENT FOR CELL AT ROW     9, COLUMN     4 IS LESS THAN RESIDUAL WATER CONTENT-- SETTING EXTINCTION WATER CONTENT EQUAL TO RESIDUAL WATER CONTENT

EXTINCTION WATER CONTENT FOR CELL AT ROW     9, COLUMN     5 IS LESS THAN RESIDUAL WATER CONTENT-- SETTING EXTINCTION WATER CONTENT EQUAL TO RESIDUAL WATER CONTENT

EXTINCTION WATER CONTENT FOR CELL AT ROW     9, COLUMN     6 IS LESS THAN RESIDUAL WATER CONTENT-- SETTING EXTINCTION WATER CONTENT EQUAL TO RESIDUAL WATER CONTENT

EXTINCTION WATER CONTENT FOR CELL AT ROW     9, COLUMN     7 IS LESS THAN RESIDUAL WATER CONTENT-- SETTING EXTINCTION WATER CONTENT EQUAL TO RESIDUAL WATER CONTENT

EXTINCTION WATER CONTENT FOR CELL AT ROW     9, COLUMN     8 IS LESS THAN RESIDUAL WATER CONTENT-- SETTING EXTINCTION WATER CONTENT EQUAL TO RESIDUAL WATER CONTENT

EXTINCTION WATER CONTENT FOR CELL AT ROW     9, COLUMN     9 IS LESS THAN RESIDUAL WATER CONTENT-- SETTING EXTINCTION WATER CONTENT EQUAL TO RESIDUAL WATER CONTENT

EXTINCTION WATER CONTENT FOR CELL AT ROW    10, COLUMN     2 IS LESS THAN RESIDUAL WATER CONTENT-- SETTING EXTINCTION WATER CONTENT EQUAL TO RESIDUAL WATER CONTENT

EXTINCTION WATER CONTENT FOR CELL AT ROW    10, COLUMN     3 IS LESS THAN RESIDUAL WATER CONTENT-- SETTING EXTINCTION WATER CONTENT EQUAL TO RESIDUAL WATER CONTENT

EXTINCTION WATER CONTENT FOR CELL AT ROW    10, COLUMN     4 IS LESS THAN RESIDUAL WATER CONTENT-- SETTING EXTINCTION WATER CONTENT EQUAL TO RESIDUAL WATER CONTENT

EXTINCTION WATER CONTENT FOR CELL AT ROW    10, COLUMN     5 IS LESS THAN RESIDUAL WATER CONTENT-- SETTING EXTINCTION WATER CONTENT EQUAL TO RESIDUAL WATER CONTENT

EXTINCTION WATER CONTENT FOR CELL AT ROW    10, COLUMN     6 IS LESS THAN RESIDUAL WATER CONTENT-- SETTING EXTINCTION WATER CONTENT EQUAL TO RESIDUAL WATER CONTENT

EXTINCTION WATER CONTENT FOR CELL AT ROW    10, COLUMN     7 IS LESS THAN RESIDUAL WATER CONTENT-- SETTING EXTINCTION WATER CONTENT EQUAL TO RESIDUAL WATER CONTENT

EXTINCTION WATER CONTENT FOR CELL AT ROW    10, COLUMN     8 IS LESS THAN RESIDUAL WATER CONTENT-- SETTING EXTINCTION WATER CONTENT EQUAL TO RESIDUAL WATER CONTENT

EXTINCTION WATER CONTENT FOR CELL AT ROW    10, COLUMN     9 IS LESS THAN RESIDUAL WATER CONTENT-- SETTING EXTINCTION WATER CONTENT EQUAL TO RESIDUAL WATER CONTENT

EXTINCTION WATER CONTENT FOR CELL AT ROW    10, COLUMN    10 IS LESS THAN RESIDUAL WATER CONTENT-- SETTING EXTINCTION WATER CONTENT EQUAL TO RESIDUAL WATER CONTENT

EXTINCTION WATER CONTENT FOR CELL AT ROW    11, COLUMN     2 IS LESS THAN RESIDUAL WATER CONTENT-- SETTING EXTINCTION WATER CONTENT EQUAL TO RESIDUAL WATER CONTENT

EXTINCTION WATER CONTENT FOR CELL AT ROW    11, COLUMN     3 IS LESS THAN RESIDUAL WATER CONTENT-- SETTING EXTINCTION WATER CONTENT EQUAL TO RESIDUAL WATER CONTENT

EXTINCTION WATER CONTENT FOR CELL AT ROW    11, COLUMN     4 IS LESS THAN RESIDUAL WATER CONTENT-- SETTING EXTINCTION WATER CONTENT EQUAL TO RESIDUAL WATER CONTENT

EXTINCTION WATER CONTENT FOR CELL AT ROW    11, COLUMN     5 IS LESS THAN RESIDUAL WATER CONTENT-- SETTING EXTINCTION WATER CONTENT EQUAL TO RESIDUAL WATER CONTENT

EXTINCTION WATER CONTENT FOR CELL AT ROW    11, COLUMN     6 IS LESS THAN RESIDUAL WATER CONTENT-- SETTING EXTINCTION WATER CONTENT EQUAL TO RESIDUAL WATER CONTENT

EXTINCTION WATER CONTENT FOR CELL AT ROW    11, COLUMN     7 IS LESS THAN RESIDUAL WATER CONTENT-- SETTING EXTINCTION WATER CONTENT EQUAL TO RESIDUAL WATER CONTENT

EXTINCTION WATER CONTENT FOR CELL AT ROW    11, COLUMN     8 IS LESS THAN RESIDUAL WATER CONTENT-- SETTING EXTINCTION WATER CONTENT EQUAL TO RESIDUAL WATER CONTENT

EXTINCTION WATER CONTENT FOR CELL AT ROW    11, COLUMN     9 IS LESS THAN RESIDUAL WATER CONTENT-- SETTING EXTINCTION WATER CONTENT EQUAL TO RESIDUAL WATER CONTENT

EXTINCTION WATER CONTENT FOR CELL AT ROW    12, COLUMN     1 IS LESS THAN RESIDUAL WATER CONTENT-- SETTING EXTINCTION WATER CONTENT EQUAL TO RESIDUAL WATER CONTENT

EXTINCTION WATER CONTENT FOR CELL AT ROW    12, COLUMN     2 IS LESS THAN RESIDUAL WATER CONTENT-- SETTING EXTINCTION WATER CONTENT EQUAL TO RESIDUAL WATER CONTENT

EXTINCTION WATER CONTENT FOR CELL AT ROW    12, COLUMN     3 IS LESS THAN RESIDUAL WATER CONTENT-- SETTING EXTINCTION WATER CONTENT EQUAL TO RESIDUAL WATER CONTENT

EXTINCTION WATER CONTENT FOR CELL AT ROW    12, COLUMN     4 IS LESS THAN RESIDUAL WATER CONTENT-- SETTING EXTINCTION WATER CONTENT EQUAL TO RESIDUAL WATER CONTENT

EXTINCTION WATER CONTENT FOR CELL AT ROW    12, COLUMN     5 IS LESS THAN RESIDUAL WATER CONTENT-- SETTING EXTINCTION WATER CONTENT EQUAL TO RESIDUAL WATER CONTENT

EXTINCTION WATER CONTENT FOR CELL AT ROW    12, COLUMN     6 IS LESS THAN RESIDUAL WATER CONTENT-- SETTING EXTINCTION WATER CONTENT EQUAL TO RESIDUAL WATER CONTENT

EXTINCTION WATER CONTENT FOR CELL AT ROW    12, COLUMN     7 IS LESS THAN RESIDUAL WATER CONTENT-- SETTING EXTINCTION WATER CONTENT EQUAL TO RESIDUAL WATER CONTENT

EXTINCTION WATER CONTENT FOR CELL AT ROW    12, COLUMN     8 IS LESS THAN RESIDUAL WATER CONTENT-- SETTING EXTINCTION WATER CONTENT EQUAL TO RESIDUAL WATER CONTENT

EXTINCTION WATER CONTENT FOR CELL AT ROW    12, COLUMN     9 IS LESS THAN RESIDUAL WATER CONTENT-- SETTING EXTINCTION WATER CONTENT EQUAL TO RESIDUAL WATER CONTENT

EXTINCTION WATER CONTENT FOR CELL AT ROW    13, COLUMN     1 IS LESS THAN RESIDUAL WATER CONTENT-- SETTING EXTINCTION WATER CONTENT EQUAL TO RESIDUAL WATER CONTENT

EXTINCTION WATER CONTENT FOR CELL AT ROW    13, COLUMN     2 IS LESS THAN RESIDUAL WATER CONTENT-- SETTING EXTINCTION WATER CONTENT EQUAL TO RESIDUAL WATER CONTENT

EXTINCTION WATER CONTENT FOR CELL AT ROW    13, COLUMN     3 IS LESS THAN RESIDUAL WATER CONTENT-- SETTING EXTINCTION WATER CONTENT EQUAL TO RESIDUAL WATER CONTENT

EXTINCTION WATER CONTENT FOR CELL AT ROW    13, COLUMN     4 IS LESS THAN RESIDUAL WATER CONTENT-- SETTING EXTINCTION WATER CONTENT EQUAL TO RESIDUAL WATER CONTENT

EXTINCTION WATER CONTENT FOR CELL AT ROW    13, COLUMN     5 IS LESS THAN RESIDUAL WATER CONTENT-- SETTING EXTINCTION WATER CONTENT EQUAL TO RESIDUAL WATER CONTENT

EXTINCTION WATER CONTENT FOR CELL AT ROW    13, COLUMN     6 IS LESS THAN RESIDUAL WATER CONTENT-- SETTING EXTINCTION WATER CONTENT EQUAL TO RESIDUAL WATER CONTENT

EXTINCTION WATER CONTENT FOR CELL AT ROW    13, COLUMN     7 IS LESS THAN RESIDUAL WATER CONTENT-- SETTING EXTINCTION WATER CONTENT EQUAL TO RESIDUAL WATER CONTENT

EXTINCTION WATER CONTENT FOR CELL AT ROW    13, COLUMN     8 IS LESS THAN RESIDUAL WATER CONTENT-- SETTING EXTINCTION WATER CONTENT EQUAL TO RESIDUAL WATER CONTENT

EXTINCTION WATER CONTENT FOR CELL AT ROW    13, COLUMN     9 IS LESS THAN RESIDUAL WATER CONTENT-- SETTING EXTINCTION WATER CONTENT EQUAL TO RESIDUAL WATER CONTENT

EXTINCTION WATER CONTENT FOR CELL AT ROW    14, COLUMN     2 IS LESS THAN RESIDUAL WATER CONTENT-- SETTING EXTINCTION WATER CONTENT EQUAL TO RESIDUAL WATER CONTENT

EXTINCTION WATER CONTENT FOR CELL AT ROW    14, COLUMN     3 IS LESS THAN RESIDUAL WATER CONTENT-- SETTING EXTINCTION WATER CONTENT EQUAL TO RESIDUAL WATER CONTENT

EXTINCTION WATER CONTENT FOR CELL AT ROW    14, COLUMN     4 IS LESS THAN RESIDUAL WATER CONTENT-- SETTING EXTINCTION WATER CONTENT EQUAL TO RESIDUAL WATER CONTENT

EXTINCTION WATER CONTENT FOR CELL AT ROW    14, COLUMN     5 IS LESS THAN RESIDUAL WATER CONTENT-- SETTING EXTINCTION WATER CONTENT EQUAL TO RESIDUAL WATER CONTENT

EXTINCTION WATER CONTENT FOR CELL AT ROW    14, COLUMN     6 IS LESS THAN RESIDUAL WATER CONTENT-- SETTING EXTINCTION WATER CONTENT EQUAL TO RESIDUAL WATER CONTENT

EXTINCTION WATER CONTENT FOR CELL AT ROW    14, COLUMN     7 IS LESS THAN RESIDUAL WATER CONTENT-- SETTING EXTINCTION WATER CONTENT EQUAL TO RESIDUAL WATER CONTENT

EXTINCTION WATER CONTENT FOR CELL AT ROW    14, COLUMN     8 IS LESS THAN RESIDUAL WATER CONTENT-- SETTING EXTINCTION WATER CONTENT EQUAL TO RESIDUAL WATER CONTENT

EXTINCTION WATER CONTENT FOR CELL AT ROW    14, COLUMN     9 IS LESS THAN RESIDUAL WATER CONTENT-- SETTING EXTINCTION WATER CONTENT EQUAL TO RESIDUAL WATER CONTENT

EXTINCTION WATER CONTENT FOR CELL AT ROW    15, COLUMN     3 IS LESS THAN RESIDUAL WATER CONTENT-- SETTING EXTINCTION WATER CONTENT EQUAL TO RESIDUAL WATER CONTENT

EXTINCTION WATER CONTENT FOR CELL AT ROW    15, COLUMN     4 IS LESS THAN RESIDUAL WATER CONTENT-- SETTING EXTINCTION WATER CONTENT EQUAL TO RESIDUAL WATER CONTENT

EXTINCTION WATER CONTENT FOR CELL AT ROW    15, COLUMN     5 IS LESS THAN RESIDUAL WATER CONTENT-- SETTING EXTINCTION WATER CONTENT EQUAL TO RESIDUAL WATER CONTENT

EXTINCTION WATER CONTENT FOR CELL AT ROW    15, COLUMN     6 IS LESS THAN RESIDUAL WATER CONTENT-- SETTING EXTINCTION WATER CONTENT EQUAL TO RESIDUAL WATER CONTENT

       AIR ENTRY PRESSURE =  -1.10000    

            ROOT PRESSURE =  -75.0000    

            ROOT ACTIVITY =   1.00000    
 # AG segment list

 PROCESSING SEGMENT LIST

 FINISHED READING SEGMENT LIST
 # AG well list

 PROCESSING WELL LIST

 LAYER   ROW   COL   MAX STRESS RATE         
 --------------------------------------------
      1      1      6      4      -100.0    
      2      1      6      5      -100.0    
      3      1      7      4      -100.0    
      4      1      7      5      -100.0    
      5      1      8      4      -100.0    
      6      1      8      5      -100.0    

 FINISHED READING WELL LIST

      6 WELLS

 PROCESSING AG STRESS PERIOD DATA
 # AG stress period

 READING AG STRESS PERIOD DATA

 READING IRRIGATION SEGMENT

 READING IRRIGATION WELL

 READING SUPPLEMENTAL WELL

 END PROCESSING AG STRESS PERIOD DATA OPTIONS
 
 SOLVING FOR HEAD 
                                                   Max.-Head-Change                         Max.-Flux-Residual
  Residual-Control   Outer-Iter.   Inner-Iter.     Column Row Layer    Maximum-Head-Change  Column Row Layer    Maximum-Flux-Residual          L2-NORM 
          0                 1           6             2    2     1      -0.2843914191E+02       3    3    1        -0.3360741367E+01      0.9336255202E+01
          0                 2           6             1    1     1      -0.3130416779E+02       1   13    1        -0.6347781745E+02      0.6369041869E+02
          0                 3           5             1    1     1      -0.1456238505E+01       6   13    1        -0.2214092883E+01      0.3433615922E+01
          0                 4           5             5   13     1      -0.1645980091E+00       5   13    1        -0.3292041480E+00      0.3977240951E+00
          0                 5           4             5   14     1       0.3281686166E-01       5   13    1         0.1669597068E-01      0.2767752842E-01
          0                 6           2             5   14     1      -0.1281592110E-02       5   13    1        -0.6694907493E-03      0.2031367476E-02
          0                 7           1             5   10     1       0.1514216708E-04       5   10    1         0.2520492239E-04      0.8039520649E-04

    ------------------------------------------------
       NWT REQUIRED            7 OUTER ITERATIONS 
       AND A TOTAL OF         29 INNER ITERATIONS.
    ------------------------------------------------

 OUTPUT CONTROL FOR STRESS PERIOD    1   TIME STEP    1
    PRINT BUDGET
    PRINT HEAD FOR ALL LAYERS
    SAVE BUDGET
    SAVE HEAD FOR ALL LAYERS
 UBDSV2 SAVING "   CONSTANT HEAD" ON UNIT 102 AT TIME STEP  1, STRESS PERIOD   1
 UBDSV1 SAVING "FLOW RIGHT FACE " ON UNIT 102 AT TIME STEP  1, STRESS PERIOD   1
 UBDSV1 SAVING "FLOW FRONT FACE " ON UNIT 102 AT TIME STEP  1, STRESS PERIOD   1

  HEAD DEP BOUNDS   PERIOD    1   STEP     1
 BOUNDARY      1   LAYER   1   ROW    13   COL     1   RATE   -0.287059    
 BOUNDARY      2   LAYER   1   ROW    14   COL     9   RATE    0.285620    



 STREAM LISTING     PERIOD      1   STEP        1

 LAYER ROW COL. STREAM  RCH.  FLOW INTO     FLOW TO   FLOW OUT OF   OVRLND.     DIRECT     STREAM       STREAM     STREAM     STREAM   STREAMBED  STREAMBED
                SEG.NO.  NO.  STRM. RCH.    AQUIFER    STRM. RCH.    RUNOFF     PRECIP       ET          HEAD       DEPTH      WIDTH   CONDCTNC.   GRADIENT

   1    1    1     1     1    3.7500E+00  8.5597E-02   3.6644E+00  0.000E+00  0.000E+00  0.000E+00  1.09373E+03  6.817E-01  5.166E+00  2.325E-02  1.227E+00
   1    2    2     1     2    3.6644E+00  1.3158E-01   3.5328E+00  0.000E+00  0.000E+00  0.000E+00  1.08873E+03  6.747E-01  5.115E+00  3.581E-02  1.225E+00
   1    3    3     1     3    3.5328E+00  1.1125E-01   3.4216E+00  0.000E+00  0.000E+00  0.000E+00  1.08309E+03  6.667E-01  5.057E+00  3.034E-02  1.222E+00
   1    3    4     1     4    3.4216E+00  1.0164E-01   3.3199E+00  0.000E+00  0.000E+00  0.000E+00  1.07807E+03  6.595E-01  5.004E+00  2.777E-02  1.220E+00
   1    4    5     2     1    1.3199E+00  2.4920E-01   1.0707E+00  0.000E+00  0.000E+00  0.000E+00  1.07213E+03  1.948E-01  1.200E+01  7.800E-02  1.065E+00
   1    5    6     2     2    1.0707E+00  1.9035E-01   8.8040E-01  0.000E+00  0.000E+00  0.000E+00  1.06668E+03  1.725E-01  1.200E+01  6.000E-02  1.057E+00
   1    6    6     2     3    8.8040E-01  1.8909E-01   6.9131E-01  0.000E+00  0.000E+00  0.000E+00  1.06194E+03  1.515E-01  1.200E+01  6.000E-02  1.050E+00
   1    7    6     2     4    6.9131E-01  1.8771E-01   5.0360E-01  0.000E+00  0.000E+00  0.000E+00  1.05720E+03  1.285E-01  1.200E+01  6.000E-02  1.043E+00
   1    8    6     2     5    5.0360E-01  1.8616E-01   3.1744E-01  0.000E+00  0.000E+00  0.000E+00  1.05246E+03  1.026E-01  1.200E+01  6.000E-02  1.034E+00
   1    3    5     3     1    2.0000E+00  2.8252E-01   1.7175E+00  0.000E+00  0.000E+00  0.000E+00  1.07555E+03  1.909E+00  9.636E+00  7.227E-02  1.955E+00
   1    3    6     3     2    1.7175E+00  2.4905E-01   1.4684E+00  0.000E+00  0.000E+00  0.000E+00  1.07264E+03  1.727E+00  8.909E+00  6.682E-02  1.864E+00
   1    3    7     3     3    1.4684E+00  1.9718E-01   1.2712E+00  0.000E+00  0.000E+00  0.000E+00  1.06987E+03  1.555E+00  8.218E+00  5.547E-02  1.777E+00
   1    4    8     3     4    1.2712E+00  2.2567E-01   1.0456E+00  0.000E+00  0.000E+00  0.000E+00  1.06682E+03  1.364E+00  7.455E+00  6.709E-02  1.682E+00
   1    5    8     3     5    1.0456E+00  1.5790E-01   8.8768E-01  0.000E+00  0.000E+00  0.000E+00  1.06362E+03  1.164E+00  6.655E+00  4.991E-02  1.582E+00
   1    6    8     3     6    8.8768E-01  5.5980E-02   8.3170E-01  0.000E+00  0.000E+00  0.000E+00  1.06158E+03  1.036E+00  6.145E+00  1.844E-02  1.518E+00
   1    5   10     4     1    1.0000E+01  9.0919E-02   9.9091E+00  0.000E+00  0.000E+00  0.000E+00  1.07836E+03  6.368E-01  1.000E+01  2.500E-02  1.212E+00
   1    5    9     4     2    9.9091E+00  1.8158E-01   9.7275E+00  0.000E+00  0.000E+00  0.000E+00  1.07154E+03  6.315E-01  1.000E+01  5.000E-02  1.211E+00
   1    6    8     4     3    9.7275E+00  1.2689E-01   9.6006E+00  0.000E+00  0.000E+00  0.000E+00  1.06381E+03  6.256E-01  1.000E+01  3.500E-02  1.209E+00
   1    6    8     5     1    1.0432E+01  2.2686E-01   1.0205E+01  0.000E+00  0.000E+00  0.000E+00  1.05868E+03  6.790E-01  1.542E+01  6.166E-02  1.226E+00
   1    7    7     5     2    1.0205E+01  2.7894E-01   9.9265E+00  0.000E+00  0.000E+00  0.000E+00  1.05417E+03  6.732E-01  1.519E+01  7.594E-02  1.224E+00
   1    8    7     5     3    9.9265E+00  1.9221E-01   9.7343E+00  0.000E+00  0.000E+00  0.000E+00  1.04992E+03  6.676E-01  1.497E+01  5.241E-02  1.223E+00
   1    8    6     5     4    9.7343E+00  1.3577E-01   9.5985E+00  0.000E+00  0.000E+00  0.000E+00  1.04691E+03  6.637E-01  1.482E+01  3.706E-02  1.221E+00
   1    9    6     6     1    9.9160E+00  2.2178E-01   9.6942E+00  0.000E+00  0.000E+00  0.000E+00  1.04342E+03  6.964E-01  1.200E+01  6.000E-02  1.232E+00
   1   10    7     6     2    9.6942E+00  2.2121E-01   9.4730E+00  0.000E+00  0.000E+00  0.000E+00  1.03887E+03  6.869E-01  1.200E+01  6.000E-02  1.229E+00
   1   11    7     6     3    9.4730E+00  2.2064E-01   9.2523E+00  0.000E+00  0.000E+00  0.000E+00  1.03431E+03  6.773E-01  1.200E+01  6.000E-02  1.226E+00
   1   12    7     6     4    9.2523E+00  2.2006E-01   9.0323E+00  0.000E+00  0.000E+00  0.000E+00  1.02976E+03  6.677E-01  1.200E+01  6.000E-02  1.223E+00
   1   13    7     6     5    9.0323E+00 -1.1354E-01   9.1458E+00  0.000E+00  0.000E+00  0.000E+00  1.02657E+03  6.654E-01  1.200E+01  2.400E-01 -1.577E-01
   1   14    9     7     1    1.5000E+02  1.3338E+00   1.4867E+02  0.000E+00  0.000E+00  0.000E+00  1.03987E+03  2.288E+00  5.529E+01  5.593E-01  7.949E-01
   1   13    8     7     2    1.4867E+02  1.8355E+00   1.4683E+02  0.000E+00  0.000E+00  0.000E+00  1.03478E+03  2.279E+00  5.526E+01  6.148E-01  9.952E-01
   1   13    7     7     3    1.4683E+02  1.4756E+00   1.4536E+02  0.000E+00  0.000E+00  0.000E+00  1.02969E+03  2.270E+00  5.522E+01  5.585E-01  8.807E-01
   1   13    6     8     1    1.5450E+02  8.2944E-01   1.5367E+02  0.000E+00  0.000E+00  0.000E+00  1.02472E+03  2.845E+00  4.126E+01  4.204E-01  6.576E-01
   1   13    5     8     2    1.5367E+02  1.0127E-01   1.5357E+02  0.000E+00  0.000E+00  0.000E+00  1.01847E+03  2.842E+00  4.121E+01  4.200E-01  8.038E-02
   1   13    4     8     3    1.5357E+02 -2.6792E+00   1.5625E+02  0.000E+00  0.000E+00  0.000E+00  1.01223E+03  2.851E+00  4.134E+01  4.213E+00 -2.120E-01
   1   13    3     8     4    1.5625E+02 -3.7567E+00   1.6001E+02  0.000E+00  0.000E+00  0.000E+00  1.00600E+03  2.873E+00  4.166E+01  4.245E+00 -2.950E-01
   1   13    2     8     5    1.6001E+02 -2.6055E+00   1.6261E+02  0.000E+00  0.000E+00  0.000E+00  9.99770E+02  2.895E+00  4.197E+01  4.277E+00 -2.031E-01
   1   13    1     8     6    1.6261E+02 -1.9843E+00   1.6460E+02  0.000E+00  0.000E+00  0.000E+00  9.94785E+02  2.910E+00  4.220E+01  2.580E+00 -2.564E-01
   1    8    6     9     1    0.0000E+00  0.0000E+00   0.0000E+00  0.000E+00  0.000E+00  0.000E+00  1.07875E+03  0.000E+00  4.000E+00  0.000E+00  1.000E+00
   1    8    5     9     2    0.0000E+00  0.0000E+00   0.0000E+00  0.000E+00  0.000E+00  0.000E+00  1.07825E+03  0.000E+00  4.000E+00  0.000E+00  1.000E+00



 UBDSV3 SAVING "           GW ET" ON UNIT  61 AT TIME STEP  1, STRESS PERIOD   1
 UBDSV3 SAVING "    UZF RECHARGE" ON UNIT  61 AT TIME STEP  1, STRESS PERIOD   1
 UBDSV3 SAVING " SURFACE LEAKAGE" ON UNIT  61 AT TIME STEP  1, STRESS PERIOD   1
 UBDSV3 SAVING "       HORT+DUNN" ON UNIT  61 AT TIME STEP  1, STRESS PERIOD   1
 UBDSV3 SAVING "  STORAGE CHANGE" ON UNIT  61 AT TIME STEP  1, STRESS PERIOD   1


UNSATURATED ZONE PACKAGE VOLUMETRIC BUDGET FOR  TIME STEP     1 STRESS PERIOD    1
  ------------------------------------------------------------------------------



     CUMULATIVE VOLUMES      L**3       RATES FOR THIS TIME STEP      L**3/T
     ------------------                 ------------------------

           IN:                                      IN:
           ---                                      ---
        INFILTRATION =       73224.0000          INFILTRATION =           0.8475

          OUT:                                     OUT:
          ----                                     ----
              UZF ET =       0.0000E+00                UZF ET =       0.0000E+00
        UZF RECHARGE =       73224.0000          UZF RECHARGE =           0.8475

            IN - OUT =       0.0000E+00              IN - OUT =       0.0000E+00

          STORAGE:                                 STORAGE:
          --------                                 --------
      STORAGE CHANGE =       0.0000E+00        STORAGE CHANGE =       0.0000E+00

 PERCENT DISCREPANCY IS DIFFERENCE BETWEEN IN-OUT MINUS CHANGE IN STORAGE
 DIVIDED BY THE AVERAGE OF IN AND OUT TIMES 100

 PERCENT DISCREPANCY =           0.00     PERCENT DISCREPANCY =           0.00






 

        AG WELLS          PERIOD    1   STEP   1
 AG WELL      1   LAYER   1   ROW     6   COL     4   RATE     0.00000    
 AG WELL      2   LAYER   1   ROW     6   COL     5   RATE     0.00000    
 AG WELL      3   LAYER   1   ROW     7   COL     4   RATE     0.00000    
 AG WELL      4   LAYER   1   ROW     7   COL     5   RATE     0.00000    
 AG WELL      5   LAYER   1   ROW     8   COL     4   RATE     0.00000    
 AG WELL      6   LAYER   1   ROW     8   COL     5   RATE     0.00000    
 
 

   DIVERSION SEGMENTS     PERIOD    1   STEP   1
 
 

        SW IRRIGATION     PERIOD    1   STEP   1
 
 

        GW IRRIGATION     PERIOD    1   STEP   1
 
1
  VOLUMETRIC BUDGET FOR AGRICULTURAL FIELDS AT  END OF TIME STEP    1, STRESS PERIOD   1
  ------------------------------------------------------------------------------

     CUMULATIVE VOLUMES      L**3       RATES FOR THIS TIME STEP      L**3/T
     ------------------                 ------------------------

           IN:                                      IN:
           ---                                      ---
           AG WELLS      =           0.0000             AG WELLS      =           0.0000
      DIVERSION SEGMENTS =           0.0000        DIVERSION SEGMENTS =           0.0000
           GW IRRIGATION =           0.0000             GW IRRIGATION =           0.0000
           SW IRRIGATION =           0.0000             SW IRRIGATION =           0.0000
        SYSTEM LOSSES GW =           0.0000          SYSTEM LOSSES GW =           0.0000
        SYSTEM LOSSES SW =           0.0000          SYSTEM LOSSES SW =           0.0000

                TOTAL IN =           0.0000                  TOTAL IN =           0.0000

          OUT:                                     OUT:
          ----                                     ----
           AG WELLS      =           0.0000             AG WELLS      =           0.0000
      DIVERSION SEGMENTS =           0.0000        DIVERSION SEGMENTS =           0.0000
           GW IRRIGATION =           0.0000             GW IRRIGATION =           0.0000
           SW IRRIGATION =           0.0000             SW IRRIGATION =           0.0000
        SYSTEM LOSSES GW =           0.0000          SYSTEM LOSSES GW =           0.0000
        SYSTEM LOSSES SW =           0.0000          SYSTEM LOSSES SW =           0.0000

               TOTAL OUT =           0.0000                 TOTAL OUT =           0.0000

                IN - OUT =           0.0000                  IN - OUT =           0.0000

     PERCENT DISCREPANCY =           0.00         PERCENT DISCREPANCY =           0.00



1
              HEAD IN LAYER   1 AT END OF TIME STEP   1 IN STRESS PERIOD    1
  ---------------------------------------------------------------------------

           1       2       3       4       5       6       7       8       9      10
 ...................................................................................
   1  1032.36 1031.32 6999.00 6999.00 6999.00 6999.00 6999.00 6999.00 6999.00 6999.00
   2  1031.40 1030.17 1029.58 6999.00 6999.00 1030.68 1030.83 1030.79 6999.00 6999.00
   3  6999.00 1029.27 1028.96 1028.73 1029.28 1029.91 1030.40 1030.37 6999.00 6999.00
   4  1028.57 1028.53 1028.35 1028.17 1028.24 1028.30 1028.78 1029.83 1029.56 6999.00
   5  1028.13 1027.76 1027.59 1027.51 1027.61 1027.82 1027.99 1028.47 1029.10 1029.63
   6  1027.57 1027.02 1026.83 1026.81 1026.93 1027.26 1027.55 1028.08 1028.52 1029.45
   7  1027.07 1026.08 1025.92 1025.96 1026.14 1026.55 1026.98 1027.45 1027.96 6999.00
   8  6999.00 1024.71 1024.75 1024.91 1025.15 1025.65 1026.08 1026.80 1027.36 6999.00
   9  6999.00 1022.70 1023.03 1023.48 1023.88 1024.53 1025.05 1025.79 1026.91 6999.00
  10  6999.00 1019.87 1020.64 1021.69 1022.47 1023.49 1024.39 1025.46 1027.07 1027.71
  11  6999.00 1015.35 1016.78 1019.32 1020.96 1022.69 1024.22 1026.00 1028.19 6999.00
  12  1001.91 1007.94 1012.08 1016.04 1019.32 1022.30 1024.79 1028.19 1031.18 6999.00
  13   995.55 1000.38 1006.88 1012.86 1018.23 1022.75 1027.05 1031.79 1034.63 6999.00
  14  6999.00 1005.79 1008.88 1013.53 1018.29 1022.70 1027.60 1033.07 1037.48 6999.00
  15  6999.00 6999.00 1012.52 1015.24 1018.71 1021.73 6999.00 6999.00 6999.00 6999.00

 HEAD WILL BE SAVED ON UNIT   62 AT END OF TIME STEP    1, STRESS PERIOD    1
1
  VOLUMETRIC BUDGET FOR ENTIRE MODEL AT END OF TIME STEP    1, STRESS PERIOD   1
  ------------------------------------------------------------------------------

     CUMULATIVE VOLUMES      L**3       RATES FOR THIS TIME STEP      L**3/T
     ------------------                 ------------------------

           IN:                                      IN:
           ---                                      ---
             STORAGE     =           0.0000               STORAGE     =           0.0000
       CONSTANT HEAD     =           0.0000         CONSTANT HEAD     =           0.0000
     HEAD DEP BOUNDS     =       24677.5273       HEAD DEP BOUNDS     =           0.2856
      STREAM LEAKAGE     =      889333.8125        STREAM LEAKAGE     =          10.2932
        UZF RECHARGE     =       73223.9531          UZF RECHARGE     =           0.8475
               GW ET     =           0.0000                 GW ET     =           0.0000
     SURFACE LEAKAGE     =           0.0000       SURFACE LEAKAGE     =           0.0000
           AG WELLS      =           0.0000             AG WELLS      =           0.0000

                TOTAL IN =      987235.2500                  TOTAL IN =          11.4263

          OUT:                                     OUT:
          ----                                     ----
             STORAGE     =           0.0000               STORAGE     =           0.0000
       CONSTANT HEAD     =           0.0000         CONSTANT HEAD     =           0.0000
     HEAD DEP BOUNDS     =       24801.8652       HEAD DEP BOUNDS     =           0.2871
      STREAM LEAKAGE     =      962433.3125        STREAM LEAKAGE     =          11.1393
        UZF RECHARGE     =           0.0000          UZF RECHARGE     =           0.0000
               GW ET     =           0.0000                 GW ET     =           0.0000
     SURFACE LEAKAGE     =           0.0000       SURFACE LEAKAGE     =           0.0000
           AG WELLS      =           0.0000             AG WELLS      =           0.0000

               TOTAL OUT =      987235.1875                 TOTAL OUT =          11.4263

                IN - OUT =       6.2500E-02                  IN - OUT =       1.9073E-06

     PERCENT DISCREPANCY =           0.00         PERCENT DISCREPANCY =           0.00






         TIME SUMMARY AT END OF TIME STEP    1 IN STRESS PERIOD    1
                    SECONDS     MINUTES      HOURS       DAYS        YEARS
                    -----------------------------------------------------------
   TIME STEP LENGTH  86400.      1440.0      24.000      1.0000     2.73785E-03
 STRESS PERIOD TIME  86400.      1440.0      24.000      1.0000     2.73785E-03
         TOTAL TIME  86400.      1440.0      24.000      1.0000     2.73785E-03
1
1
                            STRESS PERIOD NO.    2, LENGTH =   2630000.    
                            -----------------------------------------------

                              NUMBER OF TIME STEPS =    30

                               MULTIPLIER FOR DELT =     1.000

                            INITIAL TIME STEP SIZE =   87666.66    

 REUSING NON-PARAMETER GHB CELLS FROM LAST STRESS PERIOD

      2 GHB CELLS

 REUSING STREAM SEGMENT DATA FROM LAST STRESS PERIOD



            AREAL INFILTRATION RATE
 READING ON UNIT   19 WITH FORMAT: (FREE)              

            1           2           3           4           5           6           7           8           9          10
 ........................................................................................................................
   1   1.0000E-10  2.0000E-10   0.000       0.000       0.000       0.000       0.000       0.000       0.000       0.000    
   2   2.0000E-10  1.0000E-10  2.0000E-10   0.000       0.000      8.0000E-10  8.0000E-10  5.0000E-10   0.000       0.000    
   3    0.000      5.0000E-10  1.0000E-10  1.0000E-10  8.0000E-10  8.0000E-10  5.0000E-10  5.0000E-10   0.000       0.000    
   4   8.0000E-10  5.0000E-10  1.0000E-10  1.0000E-10  1.0000E-10  1.0000E-10  1.0000E-10  1.0000E-10  2.0000E-10   0.000    
   5   8.0000E-10  5.0000E-10  1.0000E-10  1.0000E-10  1.0000E-10  1.0000E-10  1.0000E-10  1.0000E-10  1.0000E-10  1.0000E-10
   6   8.0000E-10  5.0000E-10  5.0000E-10  2.0000E-10  2.0000E-10  1.0000E-10  1.0000E-10  1.0000E-10  1.0000E-10  5.0000E-10
   7   8.0000E-10  5.0000E-10  5.0000E-10  2.0000E-10  2.0000E-10  1.0000E-10  1.0000E-10  2.0000E-10  2.0000E-10   0.000    
   8    0.000      5.0000E-10  5.0000E-10  2.0000E-10  2.0000E-10  1.0000E-10  1.0000E-10  2.0000E-10  5.0000E-10   0.000    
   9    0.000      5.0000E-10  5.0000E-10  2.0000E-10  2.0000E-10  1.0000E-10  1.0000E-10  2.0000E-10  5.0000E-10   0.000    
  10    0.000      5.0000E-10  5.0000E-10  2.0000E-10  2.0000E-10  1.0000E-10  1.0000E-10  2.0000E-10  5.0000E-10  8.0000E-10
  11    0.000      1.0000E-10  1.0000E-10  1.0000E-10  1.0000E-10  1.0000E-10  1.0000E-10  2.0000E-10  5.0000E-10   0.000    
  12   1.0000E-10  1.0000E-10  1.0000E-10  1.0000E-10  1.0000E-10  1.0000E-10  1.0000E-10  1.0000E-10  2.0000E-10   0.000    
  13   1.0000E-10  1.0000E-10  2.0000E-10  2.0000E-10  2.0000E-10  2.0000E-10  2.0000E-10  1.0000E-10  1.0000E-10   0.000    
  14    0.000      2.0000E-10  5.0000E-10  5.0000E-10  5.0000E-10  5.0000E-10  5.0000E-10  2.0000E-10  1.0000E-10   0.000    
  15    0.000       0.000      8.0000E-10  8.0000E-10  8.0000E-10  8.0000E-10   0.000       0.000       0.000       0.000    

                  ET RATE =  5.000000E-10

 USING ET EXTINCTION DEPTH FROM PREVIOUS STRESS PERIOD. CURRENT PERIOD IS:       2

 USING EXTINCTION WATER CONTENT FROM PREVIOUS STRESS PERIOD. CURRENT PERIOD IS:       2

 USING AIR ENTRY PRESSURE FROM PREVIOUS STRESS PERIOD. CURRENT PERIOD IS:       2

 USING ROOT PRESSURE HEAD FROM PREVIOUS STRESS PERIOD. CURRENT PERIOD IS:       2

 USING ROOT ACTIVITY FROM PREVIOUS STRESS PERIOD. CURRENT PERIOD IS:       2

 PROCESSING AG STRESS PERIOD DATA

 READING AG STRESS PERIOD DATA

 READING IRRIGATION SEGMENT

 READING IRRIGATION WELL

 READING SUPPLEMENTAL WELL

 END PROCESSING AG STRESS PERIOD DATA OPTIONS
 
 SOLVING FOR HEAD 
                                                   Max.-Head-Change                         Max.-Flux-Residual
  Residual-Control   Outer-Iter.   Inner-Iter.     Column Row Layer    Maximum-Head-Change  Column Row Layer    Maximum-Flux-Residual          L2-NORM 
          0                 1           2             4   13     1       0.4516090521E-02       4   13    1         0.2587981320E+00      0.5589996200E+00
          0                 2           2             4   13     1      -0.4346343863E-03       4   13    1        -0.2560894401E-01      0.5485536502E-01
          0                 3           1             4   13     1       0.2895109903E-04       4   13    1         0.1753708056E-02      0.3737779858E-02

    ------------------------------------------------
       NWT REQUIRED            3 OUTER ITERATIONS 
       AND A TOTAL OF          5 INNER ITERATIONS.
    ------------------------------------------------

 OUTPUT CONTROL FOR STRESS PERIOD    2   TIME STEP    1
    PRINT BUDGET
    PRINT HEAD FOR ALL LAYERS
    SAVE BUDGET
 UBDSV1 SAVING "         STORAGE" ON UNIT 102 AT TIME STEP  1, STRESS PERIOD   2
 UBDSV2 SAVING "   CONSTANT HEAD" ON UNIT 102 AT TIME STEP  1, STRESS PERIOD   2
 UBDSV1 SAVING "FLOW RIGHT FACE " ON UNIT 102 AT TIME STEP  1, STRESS PERIOD   2
 UBDSV1 SAVING "FLOW FRONT FACE " ON UNIT 102 AT TIME STEP  1, STRESS PERIOD   2

  HEAD DEP BOUNDS   PERIOD    2   STEP     1
 BOUNDARY      1   LAYER   1   ROW    13   COL     1   RATE   -0.287146    
 BOUNDARY      2   LAYER   1   ROW    14   COL     9   RATE    0.285621    



 STREAM LISTING     PERIOD      2   STEP        1

 LAYER ROW COL. STREAM  RCH.  FLOW INTO     FLOW TO   FLOW OUT OF   OVRLND.     DIRECT     STREAM       STREAM     STREAM     STREAM   STREAMBED  STREAMBED
                SEG.NO.  NO.  STRM. RCH.    AQUIFER    STRM. RCH.    RUNOFF     PRECIP       ET          HEAD       DEPTH      WIDTH   CONDCTNC.   GRADIENT

   1    1    1     1     1    1.6500E+01  1.9759E-01   1.6302E+01  0.000E+00  0.000E+00  0.000E+00  1.09409E+03  1.039E+00  1.087E+01  4.893E-02  1.346E+00
   1    2    2     1     2    1.6302E+01  3.0466E-01   1.5998E+01  0.000E+00  0.000E+00  0.000E+00  1.08909E+03  1.034E+00  1.079E+01  7.552E-02  1.345E+00
   1    3    3     1     3    1.5998E+01  2.5853E-01   1.5739E+01  0.000E+00  0.000E+00  0.000E+00  1.08345E+03  1.029E+00  1.070E+01  6.417E-02  1.343E+00
   1    3    4     1     4    1.5739E+01  2.3700E-01   1.5502E+01  0.000E+00  0.000E+00  0.000E+00  1.07843E+03  1.024E+00  1.061E+01  5.889E-02  1.341E+00
   1    4    5     2     1    1.3502E+01  2.9865E-01   1.3204E+01  0.000E+00  0.000E+00  0.000E+00  1.07276E+03  8.289E-01  1.200E+01  7.800E-02  1.276E+00
   1    5    6     2     2    1.3204E+01  2.2914E-01   1.2974E+01  0.000E+00  0.000E+00  0.000E+00  1.06733E+03  8.190E-01  1.200E+01  6.000E-02  1.273E+00
   1    6    6     2     3    1.2974E+01  2.2862E-01   1.2746E+01  0.000E+00  0.000E+00  0.000E+00  1.06260E+03  8.104E-01  1.200E+01  6.000E-02  1.270E+00
   1    7    6     2     4    1.2746E+01  2.2810E-01   1.2518E+01  0.000E+00  0.000E+00  0.000E+00  1.05788E+03  8.017E-01  1.200E+01  6.000E-02  1.267E+00
   1    8    6     2     5    1.2518E+01  2.2758E-01   1.2290E+01  0.000E+00  0.000E+00  0.000E+00  1.05315E+03  7.930E-01  1.200E+01  6.000E-02  1.264E+00
   1    3    5     3     1    2.0000E+00  2.8252E-01   1.7175E+00  0.000E+00  0.000E+00  0.000E+00  1.07555E+03  1.909E+00  9.636E+00  7.227E-02  1.955E+00
   1    3    6     3     2    1.7175E+00  2.4905E-01   1.4684E+00  0.000E+00  0.000E+00  0.000E+00  1.07264E+03  1.727E+00  8.909E+00  6.682E-02  1.864E+00
   1    3    7     3     3    1.4684E+00  1.9718E-01   1.2712E+00  0.000E+00  0.000E+00  0.000E+00  1.06987E+03  1.555E+00  8.218E+00  5.547E-02  1.777E+00
   1    4    8     3     4    1.2712E+00  2.2567E-01   1.0456E+00  0.000E+00  0.000E+00  0.000E+00  1.06682E+03  1.364E+00  7.455E+00  6.709E-02  1.682E+00
   1    5    8     3     5    1.0456E+00  1.5790E-01   8.8768E-01  0.000E+00  0.000E+00  0.000E+00  1.06362E+03  1.164E+00  6.655E+00  4.991E-02  1.582E+00
   1    6    8     3     6    8.8768E-01  5.5980E-02   8.3170E-01  0.000E+00  0.000E+00  0.000E+00  1.06158E+03  1.036E+00  6.145E+00  1.844E-02  1.518E+00
   1    5   10     4     1    1.0000E+01  9.0919E-02   9.9091E+00  0.000E+00  0.000E+00  0.000E+00  1.07836E+03  6.368E-01  1.000E+01  2.500E-02  1.212E+00
   1    5    9     4     2    9.9091E+00  1.8158E-01   9.7275E+00  0.000E+00  0.000E+00  0.000E+00  1.07154E+03  6.315E-01  1.000E+01  5.000E-02  1.211E+00
   1    6    8     4     3    9.7275E+00  1.2689E-01   9.6006E+00  0.000E+00  0.000E+00  0.000E+00  1.06381E+03  6.256E-01  1.000E+01  3.500E-02  1.209E+00
   1    6    8     5     1    1.0432E+01  2.2686E-01   1.0205E+01  0.000E+00  0.000E+00  0.000E+00  1.05868E+03  6.790E-01  1.542E+01  6.166E-02  1.226E+00
   1    7    7     5     2    1.0205E+01  2.7894E-01   9.9265E+00  0.000E+00  0.000E+00  0.000E+00  1.05417E+03  6.732E-01  1.519E+01  7.594E-02  1.224E+00
   1    8    7     5     3    9.9265E+00  1.9221E-01   9.7343E+00  0.000E+00  0.000E+00  0.000E+00  1.04992E+03  6.676E-01  1.497E+01  5.241E-02  1.223E+00
   1    8    6     5     4    9.7343E+00  1.3577E-01   9.5985E+00  0.000E+00  0.000E+00  0.000E+00  1.04691E+03  6.637E-01  1.482E+01  3.706E-02  1.221E+00
   1    9    6     6     1    2.1889E+01  2.4742E-01   2.1641E+01  0.000E+00  0.000E+00  0.000E+00  1.04385E+03  1.124E+00  1.200E+01  6.000E-02  1.375E+00
   1   10    7     6     2    2.1641E+01  2.4696E-01   2.1394E+01  0.000E+00  0.000E+00  0.000E+00  1.03930E+03  1.116E+00  1.200E+01  6.000E-02  1.372E+00
   1   11    7     6     3    2.1394E+01  2.4650E-01   2.1148E+01  0.000E+00  0.000E+00  0.000E+00  1.03474E+03  1.108E+00  1.200E+01  6.000E-02  1.369E+00
   1   12    7     6     4    2.1148E+01  2.4603E-01   2.0902E+01  0.000E+00  0.000E+00  0.000E+00  1.03019E+03  1.101E+00  1.200E+01  6.000E-02  1.367E+00
   1   13    7     6     5    2.0902E+01 -1.0396E-02   2.0912E+01  0.000E+00  0.000E+00  0.000E+00  1.02701E+03  1.097E+00  1.200E+01  2.400E-01 -1.444E-02
   1   14    9     7     1    1.5000E+02  1.3338E+00   1.4867E+02  0.000E+00  0.000E+00  0.000E+00  1.03987E+03  2.288E+00  5.529E+01  5.593E-01  7.949E-01
   1   13    8     7     2    1.4867E+02  1.8355E+00   1.4683E+02  0.000E+00  0.000E+00  0.000E+00  1.03478E+03  2.279E+00  5.526E+01  6.148E-01  9.952E-01
   1   13    7     7     3    1.4683E+02  1.4746E+00   1.4536E+02  0.000E+00  0.000E+00  0.000E+00  1.02969E+03  2.270E+00  5.522E+01  5.585E-01  8.802E-01
   1   13    6     8     1    1.6627E+02  8.8653E-01   1.6538E+02  0.000E+00  0.000E+00  0.000E+00  1.02480E+03  2.925E+00  4.241E+01  4.322E-01  6.838E-01
   1   13    5     8     2    1.6538E+02  1.3805E-01   1.6524E+02  0.000E+00  0.000E+00  0.000E+00  1.01855E+03  2.921E+00  4.236E+01  4.317E-01  1.066E-01
   1   13    4     8     3    1.6524E+02 -2.4329E+00   1.6768E+02  0.000E+00  0.000E+00  0.000E+00  1.01230E+03  2.929E+00  4.247E+01  4.328E+00 -1.874E-01
   1   13    3     8     4    1.6768E+02 -3.5424E+00   1.7122E+02  0.000E+00  0.000E+00  0.000E+00  1.00607E+03  2.949E+00  4.275E+01  4.357E+00 -2.710E-01
   1   13    2     8     5    1.7122E+02 -2.3687E+00   1.7359E+02  0.000E+00  0.000E+00  0.000E+00  9.99843E+02  2.968E+00  4.303E+01  4.385E+00 -1.800E-01
   1   13    1     8     6    1.7359E+02 -1.8506E+00   1.7544E+02  0.000E+00  0.000E+00  0.000E+00  9.94856E+02  2.981E+00  4.323E+01  2.643E+00 -2.334E-01
   1    8    6     9     1    0.0000E+00  0.0000E+00   0.0000E+00  0.000E+00  0.000E+00  0.000E+00  1.07875E+03  0.000E+00  4.000E+00  0.000E+00  1.000E+00
   1    8    5     9     2    0.0000E+00  0.0000E+00   0.0000E+00  0.000E+00  0.000E+00  0.000E+00  1.07825E+03  0.000E+00  4.000E+00  0.000E+00  1.000E+00



 UBDSV3 SAVING "           GW ET" ON UNIT  61 AT TIME STEP  1, STRESS PERIOD   2
 UBDSV3 SAVING "    UZF RECHARGE" ON UNIT  61 AT TIME STEP  1, STRESS PERIOD   2
 UBDSV3 SAVING " SURFACE LEAKAGE" ON UNIT  61 AT TIME STEP  1, STRESS PERIOD   2
 UBDSV3 SAVING "       HORT+DUNN" ON UNIT  61 AT TIME STEP  1, STRESS PERIOD   2
 UBDSV3 SAVING "  STORAGE CHANGE" ON UNIT  61 AT TIME STEP  1, STRESS PERIOD   2


UNSATURATED ZONE PACKAGE VOLUMETRIC BUDGET FOR  TIME STEP     1 STRESS PERIOD    2
  ------------------------------------------------------------------------------



     CUMULATIVE VOLUMES      L**3       RATES FOR THIS TIME STEP      L**3/T
     ------------------                 ------------------------

           IN:                                      IN:
           ---                                      ---
        INFILTRATION =      147521.4958          INFILTRATION =           0.8475

          OUT:                                     OUT:
          ----                                     ----
              UZF ET =       65735.6246                UZF ET =           0.7498
        UZF RECHARGE =       73224.0000          UZF RECHARGE =       0.0000E+00

            IN - OUT =        8561.8711              IN - OUT =       9.7664E-02

          STORAGE:                                 STORAGE:
          --------                                 --------
      STORAGE CHANGE =        8561.8722        STORAGE CHANGE =       9.7664E-02

 PERCENT DISCREPANCY IS DIFFERENCE BETWEEN IN-OUT MINUS CHANGE IN STORAGE
 DIVIDED BY THE AVERAGE OF IN AND OUT TIMES 100

 PERCENT DISCREPANCY =           0.00     PERCENT DISCREPANCY =           0.00






 

        AG WELLS          PERIOD    2   STEP   1
 AG WELL      1   LAYER   1   ROW     6   COL     4   RATE     0.00000    
 AG WELL      2   LAYER   1   ROW     6   COL     5   RATE     0.00000    
 AG WELL      3   LAYER   1   ROW     7   COL     4   RATE     0.00000    
 AG WELL      4   LAYER   1   ROW     7   COL     5   RATE     0.00000    
 AG WELL      5   LAYER   1   ROW     8   COL     4   RATE     0.00000    
 AG WELL      6   LAYER   1   ROW     8   COL     5   RATE     0.00000    
 
 

   DIVERSION SEGMENTS     PERIOD    2   STEP   1
 
 

        SW IRRIGATION     PERIOD    2   STEP   1
 
 

        GW IRRIGATION     PERIOD    2   STEP   1
 
1
  VOLUMETRIC BUDGET FOR AGRICULTURAL FIELDS AT  END OF TIME STEP    1, STRESS PERIOD   2
  ------------------------------------------------------------------------------

     CUMULATIVE VOLUMES      L**3       RATES FOR THIS TIME STEP      L**3/T
     ------------------                 ------------------------

           IN:                                      IN:
           ---                                      ---
           AG WELLS      =           0.0000             AG WELLS      =           0.0000
      DIVERSION SEGMENTS =           0.0000        DIVERSION SEGMENTS =           0.0000
           GW IRRIGATION =           0.0000             GW IRRIGATION =           0.0000
           SW IRRIGATION =           0.0000             SW IRRIGATION =           0.0000
        SYSTEM LOSSES GW =           0.0000          SYSTEM LOSSES GW =           0.0000
        SYSTEM LOSSES SW =           0.0000          SYSTEM LOSSES SW =           0.0000

                TOTAL IN =           0.0000                  TOTAL IN =           0.0000

          OUT:                                     OUT:
          ----                                     ----
           AG WELLS      =           0.0000             AG WELLS      =           0.0000
      DIVERSION SEGMENTS =           0.0000        DIVERSION SEGMENTS =           0.0000
           GW IRRIGATION =           0.0000             GW IRRIGATION =           0.0000
           SW IRRIGATION =           0.0000             SW IRRIGATION =           0.0000
        SYSTEM LOSSES GW =           0.0000          SYSTEM LOSSES GW =           0.0000
        SYSTEM LOSSES SW =           0.0000          SYSTEM LOSSES SW =           0.0000

               TOTAL OUT =           0.0000                 TOTAL OUT =           0.0000

                IN - OUT =           0.0000                  IN - OUT =           0.0000

     PERCENT DISCREPANCY =           0.00         PERCENT DISCREPANCY =           0.00



1
              HEAD IN LAYER   1 AT END OF TIME STEP   1 IN STRESS PERIOD    2
  ---------------------------------------------------------------------------

           1       2       3       4       5       6       7       8       9      10
 ...................................................................................
   1  1032.36 1031.32 6999.00 6999.00 6999.00 6999.00 6999.00 6999.00 6999.00 6999.00
   2  1031.40 1030.17 1029.58 6999.00 6999.00 1030.68 1030.83 1030.79 6999.00 6999.00
   3  6999.00 1029.27 1028.96 1028.74 1029.28 1029.91 1030.40 1030.37 6999.00 6999.00
   4  1028.57 1028.53 1028.35 1028.17 1028.24 1028.30 1028.78 1029.83 1029.56 6999.00
   5  1028.13 1027.76 1027.59 1027.51 1027.61 1027.82 1027.99 1028.47 1029.10 1029.63
   6  1027.57 1027.02 1026.83 1026.81 1026.93 1027.26 1027.55 1028.08 1028.52 1029.45
   7  1027.07 1026.08 1025.92 1025.96 1026.14 1026.55 1026.98 1027.45 1027.96 6999.00
   8  6999.00 1024.71 1024.75 1024.91 1025.15 1025.65 1026.08 1026.80 1027.36 6999.00
   9  6999.00 1022.70 1023.03 1023.48 1023.88 1024.53 1025.05 1025.79 1026.91 6999.00
  10  6999.00 1019.87 1020.64 1021.69 1022.47 1023.49 1024.39 1025.46 1027.07 1027.71
  11  6999.00 1015.35 1016.78 1019.32 1020.96 1022.69 1024.22 1026.00 1028.19 6999.00
  12  1001.91 1007.94 1012.08 1016.04 1019.32 1022.30 1024.79 1028.19 1031.18 6999.00
  13   995.56 1000.38 1006.89 1012.87 1018.23 1022.75 1027.05 1031.79 1034.63 6999.00
  14  6999.00 1005.79 1008.88 1013.53 1018.29 1022.70 1027.60 1033.07 1037.48 6999.00
  15  6999.00 6999.00 1012.52 1015.24 1018.71 1021.73 6999.00 6999.00 6999.00 6999.00
1
  VOLUMETRIC BUDGET FOR ENTIRE MODEL AT END OF TIME STEP    1, STRESS PERIOD   2
  ------------------------------------------------------------------------------

     CUMULATIVE VOLUMES      L**3       RATES FOR THIS TIME STEP      L**3/T
     ------------------                 ------------------------

           IN:                                      IN:
           ---                                      ---
             STORAGE     =       66736.4922               STORAGE     =           0.7613
       CONSTANT HEAD     =           0.0000         CONSTANT HEAD     =           0.0000
     HEAD DEP BOUNDS     =       49716.9844       HEAD DEP BOUNDS     =           0.2856
      STREAM LEAKAGE     =     1877049.7500        STREAM LEAKAGE     =          11.2667
        UZF RECHARGE     =       73223.9531          UZF RECHARGE     =           0.0000
               GW ET     =           0.0000                 GW ET     =           0.0000
     SURFACE LEAKAGE     =           0.0000       SURFACE LEAKAGE     =           0.0000
           AG WELLS      =           0.0000             AG WELLS      =           0.0000

                TOTAL IN =     2066727.2500                  TOTAL IN =          12.3136

          OUT:                                     OUT:
          ----                                     ----
             STORAGE     =      159711.2812               STORAGE     =           1.8218
       CONSTANT HEAD     =           0.0000         CONSTANT HEAD     =           0.0000
     HEAD DEP BOUNDS     =       49975.0312       HEAD DEP BOUNDS     =           0.2871
      STREAM LEAKAGE     =     1857066.8750        STREAM LEAKAGE     =          10.2049
        UZF RECHARGE     =           0.0000          UZF RECHARGE     =           0.0000
               GW ET     =           0.0000                 GW ET     =           0.0000
     SURFACE LEAKAGE     =           0.0000       SURFACE LEAKAGE     =           0.0000
           AG WELLS      =           0.0000             AG WELLS      =           0.0000

               TOTAL OUT =     2066753.2500                 TOTAL OUT =          12.3139

                IN - OUT =         -26.0000                  IN - OUT =      -2.9755E-04

     PERCENT DISCREPANCY =          -0.00         PERCENT DISCREPANCY =          -0.00






         TIME SUMMARY AT END OF TIME STEP    1 IN STRESS PERIOD    2
                    SECONDS     MINUTES      HOURS       DAYS        YEARS
                    -----------------------------------------------------------
   TIME STEP LENGTH  87667.      1461.1      24.352      1.0147     2.77799E-03
 STRESS PERIOD TIME  87667.      1461.1      24.352      1.0147     2.77799E-03
         TOTAL TIME 1.74067E+05  2901.1      48.352      2.0147     5.51584E-03
1
 
 SOLVING FOR HEAD 
                                                   Max.-Head-Change                         Max.-Flux-Residual
  Residual-Control   Outer-Iter.   Inner-Iter.     Column Row Layer    Maximum-Head-Change  Column Row Layer    Maximum-Flux-Residual          L2-NORM 
          0                 1           2             2   13     1       0.4141604067E-02       4   13    1         0.2347421644E+00      0.5289478646E+00
          0                 2           2             4   13     1      -0.3943921141E-03       4   13    1        -0.2322508993E-01      0.5195277974E-01
          0                 3           1             4   13     1       0.2644842864E-04       4   13    1         0.1601340582E-02      0.3548358795E-02

    ------------------------------------------------
       NWT REQUIRED            3 OUTER ITERATIONS 
       AND A TOTAL OF          5 INNER ITERATIONS.
    ------------------------------------------------

 NO OUTPUT CONTROL FOR STRESS PERIOD    2   TIME STEP    2
 
 SOLVING FOR HEAD 
                                                   Max.-Head-Change                         Max.-Flux-Residual
  Residual-Control   Outer-Iter.   Inner-Iter.     Column Row Layer    Maximum-Head-Change  Column Row Layer    Maximum-Flux-Residual          L2-NORM 
          0                 1           2             2   13     1       0.3838451722E-02       2   13    1         0.2157898443E+00      0.5018947223E+00
          0                 2           2             4   13     1      -0.3580860464E-03       4   13    1        -0.2107510957E-01      0.4934276730E-01
          0                 3           1             4   13     1       0.2403484716E-04       4   13    1         0.1454379058E-02      0.3375977545E-02

    ------------------------------------------------
       NWT REQUIRED            3 OUTER ITERATIONS 
       AND A TOTAL OF          5 INNER ITERATIONS.
    ------------------------------------------------

 NO OUTPUT CONTROL FOR STRESS PERIOD    2   TIME STEP    3
 
 SOLVING FOR HEAD 
                                                   Max.-Head-Change                         Max.-Flux-Residual
  Residual-Control   Outer-Iter.   Inner-Iter.     Column Row Layer    Maximum-Head-Change  Column Row Layer    Maximum-Flux-Residual          L2-NORM 
          0                 1           2             2   13     1       0.3557559587E-02       2   13    1         0.1999768401E+00      0.4775469808E+00
          0                 2           2             2   13     1      -0.3313317856E-03       2   13    1        -0.1914529669E-01      0.4698879784E-01
          0                 3           1             4   13     1       0.2180721347E-04       4   13    1         0.1318793073E-02      0.3217700760E-02

    ------------------------------------------------
       NWT REQUIRED            3 OUTER ITERATIONS 
       AND A TOTAL OF          5 INNER ITERATIONS.
    ------------------------------------------------

 NO OUTPUT CONTROL FOR STRESS PERIOD    2   TIME STEP    4
 
 SOLVING FOR HEAD 
                                                   Max.-Head-Change                         Max.-Flux-Residual
  Residual-Control   Outer-Iter.   Inner-Iter.     Column Row Layer    Maximum-Head-Change  Column Row Layer    Maximum-Flux-Residual          L2-NORM 
          0                 1           2             2   13     1       0.3297604685E-02       2   13    1         0.1853435845E+00      0.4556415430E+00
          0                 2           2             2    2     1      -0.3075700726E-03       2   13    1        -0.1774964558E-01      0.4487548817E-01
          0                 3           1             2    2     1       0.2094437751E-04       4   13    1         0.1198174047E-02      0.3076929403E-02

    ------------------------------------------------
       NWT REQUIRED            3 OUTER ITERATIONS 
       AND A TOTAL OF          5 INNER ITERATIONS.
    ------------------------------------------------

 NO OUTPUT CONTROL FOR STRESS PERIOD    2   TIME STEP    5
 
 SOLVING FOR HEAD 
                                                   Max.-Head-Change                         Max.-Flux-Residual
  Residual-Control   Outer-Iter.   Inner-Iter.     Column Row Layer    Maximum-Head-Change  Column Row Layer    Maximum-Flux-Residual          L2-NORM 
          0                 1           2             2    2     1       0.3137740412E-02       2   13    1         0.1717992485E+00      0.4359362745E+00
          0                 2           2             2    2     1      -0.3052170142E-03       2   13    1        -0.1645865069E-01      0.4297630026E-01
          0                 3           1             2    2     1       0.2078414308E-04       2    2    1         0.1148336413E-02      0.2950597531E-02

    ------------------------------------------------
       NWT REQUIRED            3 OUTER ITERATIONS 
       AND A TOTAL OF          5 INNER ITERATIONS.
    ------------------------------------------------

 NO OUTPUT CONTROL FOR STRESS PERIOD    2   TIME STEP    6
 
 SOLVING FOR HEAD 
                                                   Max.-Head-Change                         Max.-Flux-Residual
  Residual-Control   Outer-Iter.   Inner-Iter.     Column Row Layer    Maximum-Head-Change  Column Row Layer    Maximum-Flux-Residual          L2-NORM 
          0                 1           2             2    2     1       0.3113901219E-02       2    2    1         0.1627934591E+00      0.4182063023E+00
          0                 2           2             2    2     1      -0.3028981017E-03       2    2    1        -0.1627937418E-01      0.4126813743E-01
          0                 3           1             2    2     1       0.2062623349E-04       2    2    1         0.1139556415E-02      0.2837809020E-02

    ------------------------------------------------
       NWT REQUIRED            3 OUTER ITERATIONS 
       AND A TOTAL OF          5 INNER ITERATIONS.
    ------------------------------------------------

 NO OUTPUT CONTROL FOR STRESS PERIOD    2   TIME STEP    7
 
 SOLVING FOR HEAD 
                                                   Max.-Head-Change                         Max.-Flux-Residual
  Residual-Control   Outer-Iter.   Inner-Iter.     Column Row Layer    Maximum-Head-Change  Column Row Layer    Maximum-Flux-Residual          L2-NORM 
          0                 1           2             2    2     1       0.3090495551E-02       2    2    1         0.1615619536E+00      0.4022459845E+00
          0                 2           2             2    2     1      -0.3006213598E-03       2    2    1        -0.1615622306E-01      0.3973071059E-01
          0                 3           1             2    2     1       0.2047119617E-04       2    2    1         0.1130935852E-02      0.2735708798E-02

    ------------------------------------------------
       NWT REQUIRED            3 OUTER ITERATIONS 
       AND A TOTAL OF          5 INNER ITERATIONS.
    ------------------------------------------------

 NO OUTPUT CONTROL FOR STRESS PERIOD    2   TIME STEP    8
 
 SOLVING FOR HEAD 
                                                   Max.-Head-Change                         Max.-Flux-Residual
  Residual-Control   Outer-Iter.   Inner-Iter.     Column Row Layer    Maximum-Head-Change  Column Row Layer    Maximum-Flux-Residual          L2-NORM 
          0                 1           2             2    2     1       0.3067343233E-02       2    2    1         0.1603438620E+00      0.3878711226E+00
          0                 2           2             2    2     1      -0.2983692623E-03       2    2    1        -0.1603441335E-01      0.3834542087E-01
          0                 3           1             2    2     1       0.2031783686E-04       2    2    1         0.1122409173E-02      0.2642671797E-02

    ------------------------------------------------
       NWT REQUIRED            3 OUTER ITERATIONS 
       AND A TOTAL OF          5 INNER ITERATIONS.
    ------------------------------------------------

 NO OUTPUT CONTROL FOR STRESS PERIOD    2   TIME STEP    9
 
 SOLVING FOR HEAD 
                                                   Max.-Head-Change                         Max.-Flux-Residual
  Residual-Control   Outer-Iter.   Inner-Iter.     Column Row Layer    Maximum-Head-Change  Column Row Layer    Maximum-Flux-Residual          L2-NORM 
          0                 1           2             2    2     1       0.3044526459E-02       2    2    1         0.1591434383E+00      0.3749194505E+00
          0                 2           2             2    2     1      -0.2961498038E-03       2    2    1        -0.1591437041E-01      0.3709815521E-01
          0                 3           1             2    2     1       0.2016669991E-04       2    2    1         0.1114006163E-02      0.2560264876E-02

    ------------------------------------------------
       NWT REQUIRED            3 OUTER ITERATIONS 
       AND A TOTAL OF          5 INNER ITERATIONS.
    ------------------------------------------------

 NO OUTPUT CONTROL FOR STRESS PERIOD    2   TIME STEP   10
 
 SOLVING FOR HEAD 
                                                   Max.-Head-Change                         Max.-Flux-Residual
  Residual-Control   Outer-Iter.   Inner-Iter.     Column Row Layer    Maximum-Head-Change  Column Row Layer    Maximum-Flux-Residual          L2-NORM 
          0                 1           2             2    2     1       0.3021953028E-02       2    2    1         0.1579558800E+00      0.3632348403E+00
          0                 2           2             2    2     1      -0.2939540159E-03       2    2    1        -0.1579561404E-01      0.3597264143E-01
          0                 3           1             2    2     1       0.2001717447E-04       2    2    1         0.1105693200E-02      0.2485321935E-02

    ------------------------------------------------
       NWT REQUIRED            3 OUTER ITERATIONS 
       AND A TOTAL OF          5 INNER ITERATIONS.
    ------------------------------------------------

 NO OUTPUT CONTROL FOR STRESS PERIOD    2   TIME STEP   11
 
 SOLVING FOR HEAD 
                                                   Max.-Head-Change                         Max.-Flux-Residual
  Residual-Control   Outer-Iter.   Inner-Iter.     Column Row Layer    Maximum-Head-Change  Column Row Layer    Maximum-Flux-Residual          L2-NORM 
          0                 1           2             2    2     1       0.2999790039E-02       2    2    1         0.1567898805E+00      0.3526755102E+00
          0                 2           2             2    2     1      -0.2917981541E-03       2    2    1        -0.1567901358E-01      0.3495648231E-01
          0                 3           1             2    2     1       0.1987036864E-04       2    2    1         0.1097531184E-02      0.2417810200E-02

    ------------------------------------------------
       NWT REQUIRED            3 OUTER ITERATIONS 
       AND A TOTAL OF          5 INNER ITERATIONS.
    ------------------------------------------------

 NO OUTPUT CONTROL FOR STRESS PERIOD    2   TIME STEP   12
 
 SOLVING FOR HEAD 
                                                   Max.-Head-Change                         Max.-Flux-Residual
  Residual-Control   Outer-Iter.   Inner-Iter.     Column Row Layer    Maximum-Head-Change  Column Row Layer    Maximum-Flux-Residual          L2-NORM 
          0                 1           2             2    2     1       0.2977861985E-02       2    2    1         0.1556363428E+00      0.3431290732E+00
          0                 2           2             2    2     1      -0.2896651447E-03       2    2    1        -0.1556365931E-01      0.3403420194E-01
          0                 3           1             2    2     1       0.1972511894E-04       2    2    1         0.1089456382E-02      0.2356634596E-02

    ------------------------------------------------
       NWT REQUIRED            3 OUTER ITERATIONS 
       AND A TOTAL OF          5 INNER ITERATIONS.
    ------------------------------------------------

 NO OUTPUT CONTROL FOR STRESS PERIOD    2   TIME STEP   13
 
 SOLVING FOR HEAD 
                                                   Max.-Head-Change                         Max.-Flux-Residual
  Residual-Control   Outer-Iter.   Inner-Iter.     Column Row Layer    Maximum-Head-Change  Column Row Layer    Maximum-Flux-Residual          L2-NORM 
          0                 1           2             2    2     1       0.2956249451E-02       2    2    1         0.1544993958E+00      0.3344812589E+00
          0                 2           2             2    2     1      -0.2875628271E-03       2    2    1        -0.1544996412E-01      0.3320172279E-01
          0                 3           1             2    2     1       0.1958195883E-04       2    2    1         0.1081497722E-02      0.2301493628E-02

    ------------------------------------------------
       NWT REQUIRED            3 OUTER ITERATIONS 
       AND A TOTAL OF          5 INNER ITERATIONS.
    ------------------------------------------------

 NO OUTPUT CONTROL FOR STRESS PERIOD    2   TIME STEP   14
 
 SOLVING FOR HEAD 
                                                   Max.-Head-Change                         Max.-Flux-Residual
  Residual-Control   Outer-Iter.   Inner-Iter.     Column Row Layer    Maximum-Head-Change  Column Row Layer    Maximum-Flux-Residual          L2-NORM 
          0                 1           2             2    2     1       0.2934946924E-02       2    2    1         0.1533788083E+00      0.3266290391E+00
          0                 2           2             2    2     1      -0.2854906645E-03       2    2    1        -0.1533790486E-01      0.3244578659E-01
          0                 3           1             2    2     1       0.1944085210E-04       2    2    1         0.1073653580E-02      0.2253271663E-02

    ------------------------------------------------
       NWT REQUIRED            3 OUTER ITERATIONS 
       AND A TOTAL OF          5 INNER ITERATIONS.
    ------------------------------------------------

 NO OUTPUT CONTROL FOR STRESS PERIOD    2   TIME STEP   15
 
 SOLVING FOR HEAD 
                                                   Max.-Head-Change                         Max.-Flux-Residual
  Residual-Control   Outer-Iter.   Inner-Iter.     Column Row Layer    Maximum-Head-Change  Column Row Layer    Maximum-Flux-Residual          L2-NORM 
          0                 1           2             2    2     1       0.2913949701E-02       2    2    1         0.1522742942E+00      0.3194883970E+00
          0                 2           2             2    2     1      -0.2834482001E-03       2    2    1        -0.1522745299E-01      0.3175458754E-01
          0                 3           1             2    2     1       0.1930176821E-04       2    2    1         0.1065921939E-02      0.2202108134E-02

    ------------------------------------------------
       NWT REQUIRED            3 OUTER ITERATIONS 
       AND A TOTAL OF          5 INNER ITERATIONS.
    ------------------------------------------------

 NO OUTPUT CONTROL FOR STRESS PERIOD    2   TIME STEP   16
 
 SOLVING FOR HEAD 
                                                   Max.-Head-Change                         Max.-Flux-Residual
  Residual-Control   Outer-Iter.   Inner-Iter.     Column Row Layer    Maximum-Head-Change  Column Row Layer    Maximum-Flux-Residual          L2-NORM 
          0                 1           2             2    2     1       0.2893252802E-02       2    2    1         0.1511856099E+00      0.3129773638E+00
          0                 2           2             2    2     1      -0.2814349494E-03       2    2    1        -0.1511858410E-01      0.3112425761E-01
          0                 3           1             2    2     1       0.1916467332E-04       2    2    1         0.1058301126E-02      0.2162372807E-02

    ------------------------------------------------
       NWT REQUIRED            3 OUTER ITERATIONS 
       AND A TOTAL OF          5 INNER ITERATIONS.
    ------------------------------------------------

 NO OUTPUT CONTROL FOR STRESS PERIOD    2   TIME STEP   17
 
 SOLVING FOR HEAD 
                                                   Max.-Head-Change                         Max.-Flux-Residual
  Residual-Control   Outer-Iter.   Inner-Iter.     Column Row Layer    Maximum-Head-Change  Column Row Layer    Maximum-Flux-Residual          L2-NORM 
          0                 1           2             2    2     1       0.2872764618E-02       2    2    1         0.1501079641E+00      0.3070291294E+00
          0                 2           2             2    2     1      -0.2794420010E-03       2    2    1        -0.1501081909E-01      0.3054880097E-01
          0                 3           1             2    2     1       0.1902896085E-04       2    2    1         0.1050757575E-02      0.2123802106E-02

    ------------------------------------------------
       NWT REQUIRED            3 OUTER ITERATIONS 
       AND A TOTAL OF          5 INNER ITERATIONS.
    ------------------------------------------------

 NO OUTPUT CONTROL FOR STRESS PERIOD    2   TIME STEP   18
 
 SOLVING FOR HEAD 
                                                   Max.-Head-Change                         Max.-Flux-Residual
  Residual-Control   Outer-Iter.   Inner-Iter.     Column Row Layer    Maximum-Head-Change  Column Row Layer    Maximum-Flux-Residual          L2-NORM 
          0                 1           2             2    2     1       0.2852655220E-02       2    2    1         0.1490502058E+00      0.3015797110E+00
          0                 2           2             2    2     1      -0.2774858982E-03       2    2    1        -0.1490504280E-01      0.3002118470E-01
          0                 3           1             2    2     1       0.1889575781E-04       2    2    1         0.1043353232E-02      0.2088771625E-02

    ------------------------------------------------
       NWT REQUIRED            3 OUTER ITERATIONS 
       AND A TOTAL OF          5 INNER ITERATIONS.
    ------------------------------------------------

 NO OUTPUT CONTROL FOR STRESS PERIOD    2   TIME STEP   19
 
 SOLVING FOR HEAD 
                                                   Max.-Head-Change                         Max.-Flux-Residual
  Residual-Control   Outer-Iter.   Inner-Iter.     Column Row Layer    Maximum-Head-Change  Column Row Layer    Maximum-Flux-Residual          L2-NORM 
          0                 1           2             2    2     1       0.2832744979E-02       2    2    1         0.1480030213E+00      0.2965743403E+00
          0                 2           2             2    2     1      -0.2755491682E-03       2    2    1        -0.1480032393E-01      0.2953617810E-01
          0                 3           1             2    2     1       0.1876387376E-04       2    2    1         0.1036022913E-02      0.2056254546E-02

    ------------------------------------------------
       NWT REQUIRED            3 OUTER ITERATIONS 
       AND A TOTAL OF          5 INNER ITERATIONS.
    ------------------------------------------------

 NO OUTPUT CONTROL FOR STRESS PERIOD    2   TIME STEP   20
 
 SOLVING FOR HEAD 
                                                   Max.-Head-Change                         Max.-Flux-Residual
  Residual-Control   Outer-Iter.   Inner-Iter.     Column Row Layer    Maximum-Head-Change  Column Row Layer    Maximum-Flux-Residual          L2-NORM 
          0                 1           2             2    2     1       0.2813117412E-02       2    2    1         0.1469706957E+00      0.2919606691E+00
          0                 2           2             2    2     1      -0.2736399349E-03       2    2    1        -0.1469709095E-01      0.2908721195E-01
          0                 3           1             2    2     1       0.1863386204E-04       2    2    1         0.1028796608E-02      0.2025392134E-02

    ------------------------------------------------
       NWT REQUIRED            3 OUTER ITERATIONS 
       AND A TOTAL OF          5 INNER ITERATIONS.
    ------------------------------------------------

 NO OUTPUT CONTROL FOR STRESS PERIOD    2   TIME STEP   21
 
 SOLVING FOR HEAD 
                                                   Max.-Head-Change                         Max.-Flux-Residual
  Residual-Control   Outer-Iter.   Inner-Iter.     Column Row Layer    Maximum-Head-Change  Column Row Layer    Maximum-Flux-Residual          L2-NORM 
          0                 1           2             2    2     1       0.2793767597E-02       2    2    1         0.1459530265E+00      0.2876717450E+00
          0                 2           2             2    2     1      -0.2717577197E-03       2    2    1        -0.1459532363E-01      0.2864800425E-01
          0                 3           1             2    2     1       0.1850569044E-04       2    2    1         0.1021672912E-02      0.1996967620E-02

    ------------------------------------------------
       NWT REQUIRED            3 OUTER ITERATIONS 
       AND A TOTAL OF          5 INNER ITERATIONS.
    ------------------------------------------------

 NO OUTPUT CONTROL FOR STRESS PERIOD    2   TIME STEP   22
 
 SOLVING FOR HEAD 
                                                   Max.-Head-Change                         Max.-Flux-Residual
  Residual-Control   Outer-Iter.   Inner-Iter.     Column Row Layer    Maximum-Head-Change  Column Row Layer    Maximum-Flux-Residual          L2-NORM 
          0                 1           2             2    2     1       0.2774691381E-02       2    2    1         0.1449497585E+00      0.2837507840E+00
          0                 2           2             2    2     1      -0.2699021179E-03       2    2    1        -0.1449499642E-01      0.2829013869E-01
          0                 3           1             2    2     1       0.1837933082E-04       2    2    1         0.1014650006E-02      0.1972719293E-02

    ------------------------------------------------
       NWT REQUIRED            3 OUTER ITERATIONS 
       AND A TOTAL OF          5 INNER ITERATIONS.
    ------------------------------------------------

 NO OUTPUT CONTROL FOR STRESS PERIOD    2   TIME STEP   23
 
 SOLVING FOR HEAD 
                                                   Max.-Head-Change                         Max.-Flux-Residual
  Residual-Control   Outer-Iter.   Inner-Iter.     Column Row Layer    Maximum-Head-Change  Column Row Layer    Maximum-Flux-Residual          L2-NORM 
          0                 1           2             2    2     1       0.2755889406E-02       2    2    1         0.1439609219E+00      0.2800863817E+00
          0                 2           2             2    2     1      -0.2680731924E-03       2    2    1        -0.1439611239E-01      0.2793275682E-01
          0                 3           1             2    2     1       0.1825478743E-04       2    2    1         0.1007728093E-02      0.1948629738E-02

    ------------------------------------------------
       NWT REQUIRED            3 OUTER ITERATIONS 
       AND A TOTAL OF          5 INNER ITERATIONS.
    ------------------------------------------------

 NO OUTPUT CONTROL FOR STRESS PERIOD    2   TIME STEP   24
 
 SOLVING FOR HEAD 
                                                   Max.-Head-Change                         Max.-Flux-Residual
  Residual-Control   Outer-Iter.   Inner-Iter.     Column Row Layer    Maximum-Head-Change  Column Row Layer    Maximum-Flux-Residual          L2-NORM 
          0                 1           2             2    2     1       0.2737260761E-02       2    2    1         0.1429812797E+00      0.2766706518E+00
          0                 2           2             2    2     1      -0.2662611273E-03       2    2    1        -0.1429814778E-01      0.2759995882E-01
          0                 3           1             2    2     1       0.1813139261E-04       2    2    1         0.1000870577E-02      0.1925853957E-02

    ------------------------------------------------
       NWT REQUIRED            3 OUTER ITERATIONS 
       AND A TOTAL OF          5 INNER ITERATIONS.
    ------------------------------------------------

 NO OUTPUT CONTROL FOR STRESS PERIOD    2   TIME STEP   25
 
 SOLVING FOR HEAD 
                                                   Max.-Head-Change                         Max.-Flux-Residual
  Residual-Control   Outer-Iter.   Inner-Iter.     Column Row Layer    Maximum-Head-Change  Column Row Layer    Maximum-Flux-Residual          L2-NORM 
          0                 1           2             2    2     1       0.2718980085E-02       2    2    1         0.1420199372E+00      0.2734814448E+00
          0                 2           2             2    2     1      -0.2644829109E-03       2    2    1        -0.1420201317E-01      0.2728806241E-01
          0                 3           1             2    2     1       0.1801030323E-04       2    2    1         0.9941411768E-03      0.1904250751E-02

    ------------------------------------------------
       NWT REQUIRED            3 OUTER ITERATIONS 
       AND A TOTAL OF          5 INNER ITERATIONS.
    ------------------------------------------------

 NO OUTPUT CONTROL FOR STRESS PERIOD    2   TIME STEP   26
 
 SOLVING FOR HEAD 
                                                   Max.-Head-Change                         Max.-Flux-Residual
  Residual-Control   Outer-Iter.   Inner-Iter.     Column Row Layer    Maximum-Head-Change  Column Row Layer    Maximum-Flux-Residual          L2-NORM 
          0                 1           2             2    2     1       0.2700869381E-02       2    2    1         0.1410675692E+00      0.2704895739E+00
          0                 2           2             2    2     1      -0.2627212273E-03       2    2    1        -0.1410677599E-01      0.2699573848E-01
          0                 3           1             2    2     1       0.1789033852E-04       2    2    1         0.9874745567E-03      0.1885295107E-02

    ------------------------------------------------
       NWT REQUIRED            3 OUTER ITERATIONS 
       AND A TOTAL OF          5 INNER ITERATIONS.
    ------------------------------------------------

 NO OUTPUT CONTROL FOR STRESS PERIOD    2   TIME STEP   27
 
 SOLVING FOR HEAD 
                                                   Max.-Head-Change                         Max.-Flux-Residual
  Residual-Control   Outer-Iter.   Inner-Iter.     Column Row Layer    Maximum-Head-Change  Column Row Layer    Maximum-Flux-Residual          L2-NORM 
          0                 1           2             2    2     1       0.2683012307E-02       2    2    1         0.1401285478E+00      0.2676806483E+00
          0                 2           2             2    2     1      -0.2609842159E-03       2    2    1        -0.1401287351E-01      0.2672002674E-01
          0                 3           1             2    2     1       0.1777205489E-04       2    2    1         0.9809013885E-03      0.1865495041E-02

    ------------------------------------------------
       NWT REQUIRED            3 OUTER ITERATIONS 
       AND A TOTAL OF          5 INNER ITERATIONS.
    ------------------------------------------------

 NO OUTPUT CONTROL FOR STRESS PERIOD    2   TIME STEP   28
 
 SOLVING FOR HEAD 
                                                   Max.-Head-Change                         Max.-Flux-Residual
  Residual-Control   Outer-Iter.   Inner-Iter.     Column Row Layer    Maximum-Head-Change  Column Row Layer    Maximum-Flux-Residual          L2-NORM 
          0                 1           2             2    2     1       0.2665404407E-02       2    2    1         0.1392026767E+00      0.2650364101E+00
          0                 2           2             2    2     1      -0.2592714421E-03       2    2    1        -0.1392028606E-01      0.2646096208E-01
          0                 3           1             2    2     1       0.1765542112E-04       2    2    1         0.9744202535E-03      0.1848266191E-02

    ------------------------------------------------
       NWT REQUIRED            3 OUTER ITERATIONS 
       AND A TOTAL OF          5 INNER ITERATIONS.
    ------------------------------------------------

 NO OUTPUT CONTROL FOR STRESS PERIOD    2   TIME STEP   29
 
 SOLVING FOR HEAD 
                                                   Max.-Head-Change                         Max.-Flux-Residual
  Residual-Control   Outer-Iter.   Inner-Iter.     Column Row Layer    Maximum-Head-Change  Column Row Layer    Maximum-Flux-Residual          L2-NORM 
          0                 1           2             2    2     1       0.2648042040E-02       2    2    1         0.1382897251E+00      0.2625375411E+00
          0                 2           2             2    2     1      -0.2575825525E-03       2    2    1        -0.1382899057E-01      0.2621546360E-01
          0                 3           1             2    2     1       0.1754041401E-04       2    2    1         0.9680295867E-03      0.1831743696E-02

    ------------------------------------------------
       NWT REQUIRED            3 OUTER ITERATIONS 
       AND A TOTAL OF          5 INNER ITERATIONS.
    ------------------------------------------------

 NO OUTPUT CONTROL FOR STRESS PERIOD    2   TIME STEP   30



 STREAM LISTING     PERIOD      2   STEP       30

 LAYER ROW COL. STREAM  RCH.  FLOW INTO     FLOW TO   FLOW OUT OF   OVRLND.     DIRECT     STREAM       STREAM     STREAM     STREAM   STREAMBED  STREAMBED
                SEG.NO.  NO.  STRM. RCH.    AQUIFER    STRM. RCH.    RUNOFF     PRECIP       ET          HEAD       DEPTH      WIDTH   CONDCTNC.   GRADIENT

   1    1    1     1     1    1.6500E+01  1.9759E-01   1.6302E+01  0.000E+00  0.000E+00  0.000E+00  1.09409E+03  1.039E+00  1.087E+01  4.893E-02  1.346E+00
   1    2    2     1     2    1.6302E+01  3.0466E-01   1.5998E+01  0.000E+00  0.000E+00  0.000E+00  1.08909E+03  1.034E+00  1.079E+01  7.552E-02  1.345E+00
   1    3    3     1     3    1.5998E+01  2.5853E-01   1.5739E+01  0.000E+00  0.000E+00  0.000E+00  1.08345E+03  1.029E+00  1.070E+01  6.417E-02  1.343E+00
   1    3    4     1     4    1.5739E+01  2.3700E-01   1.5502E+01  0.000E+00  0.000E+00  0.000E+00  1.07843E+03  1.024E+00  1.061E+01  5.889E-02  1.341E+00
   1    4    5     2     1    1.3502E+01  2.9865E-01   1.3204E+01  0.000E+00  0.000E+00  0.000E+00  1.07276E+03  8.289E-01  1.200E+01  7.800E-02  1.276E+00
   1    5    6     2     2    1.3204E+01  2.2914E-01   1.2974E+01  0.000E+00  0.000E+00  0.000E+00  1.06733E+03  8.190E-01  1.200E+01  6.000E-02  1.273E+00
   1    6    6     2     3    1.2974E+01  2.2862E-01   1.2746E+01  0.000E+00  0.000E+00  0.000E+00  1.06260E+03  8.104E-01  1.200E+01  6.000E-02  1.270E+00
   1    7    6     2     4    1.2746E+01  2.2810E-01   1.2518E+01  0.000E+00  0.000E+00  0.000E+00  1.05788E+03  8.017E-01  1.200E+01  6.000E-02  1.267E+00
   1    8    6     2     5    1.2518E+01  2.2758E-01   1.2290E+01  0.000E+00  0.000E+00  0.000E+00  1.05315E+03  7.930E-01  1.200E+01  6.000E-02  1.264E+00
   1    3    5     3     1    2.0000E+00  2.8252E-01   1.7175E+00  0.000E+00  0.000E+00  0.000E+00  1.07555E+03  1.909E+00  9.636E+00  7.227E-02  1.955E+00
   1    3    6     3     2    1.7175E+00  2.4905E-01   1.4684E+00  0.000E+00  0.000E+00  0.000E+00  1.07264E+03  1.727E+00  8.909E+00  6.682E-02  1.864E+00
   1    3    7     3     3    1.4684E+00  1.9718E-01   1.2712E+00  0.000E+00  0.000E+00  0.000E+00  1.06987E+03  1.555E+00  8.218E+00  5.547E-02  1.777E+00
   1    4    8     3     4    1.2712E+00  2.2567E-01   1.0456E+00  0.000E+00  0.000E+00  0.000E+00  1.06682E+03  1.364E+00  7.455E+00  6.709E-02  1.682E+00
   1    5    8     3     5    1.0456E+00  1.5790E-01   8.8768E-01  0.000E+00  0.000E+00  0.000E+00  1.06362E+03  1.164E+00  6.655E+00  4.991E-02  1.582E+00
   1    6    8     3     6    8.8768E-01  5.5980E-02   8.3170E-01  0.000E+00  0.000E+00  0.000E+00  1.06158E+03  1.036E+00  6.145E+00  1.844E-02  1.518E+00
   1    5   10     4     1    1.0000E+01  9.0919E-02   9.9091E+00  0.000E+00  0.000E+00  0.000E+00  1.07836E+03  6.368E-01  1.000E+01  2.500E-02  1.212E+00
   1    5    9     4     2    9.9091E+00  1.8158E-01   9.7275E+00  0.000E+00  0.000E+00  0.000E+00  1.07154E+03  6.315E-01  1.000E+01  5.000E-02  1.211E+00
   1    6    8     4     3    9.7275E+00  1.2689E-01   9.6006E+00  0.000E+00  0.000E+00  0.000E+00  1.06381E+03  6.256E-01  1.000E+01  3.500E-02  1.209E+00
   1    6    8     5     1    1.0432E+01  2.2686E-01   1.0205E+01  0.000E+00  0.000E+00  0.000E+00  1.05868E+03  6.790E-01  1.542E+01  6.166E-02  1.226E+00
   1    7    7     5     2    1.0205E+01  2.7894E-01   9.9265E+00  0.000E+00  0.000E+00  0.000E+00  1.05417E+03  6.732E-01  1.519E+01  7.594E-02  1.224E+00
   1    8    7     5     3    9.9265E+00  1.9221E-01   9.7343E+00  0.000E+00  0.000E+00  0.000E+00  1.04992E+03  6.676E-01  1.497E+01  5.241E-02  1.223E+00
   1    8    6     5     4    9.7343E+00  1.3577E-01   9.5985E+00  0.000E+00  0.000E+00  0.000E+00  1.04691E+03  6.637E-01  1.482E+01  3.706E-02  1.221E+00
   1    9    6     6     1    2.1889E+01  2.4742E-01   2.1641E+01  0.000E+00  0.000E+00  0.000E+00  1.04385E+03  1.124E+00  1.200E+01  6.000E-02  1.375E+00
   1   10    7     6     2    2.1641E+01  2.4696E-01   2.1394E+01  0.000E+00  0.000E+00  0.000E+00  1.03930E+03  1.116E+00  1.200E+01  6.000E-02  1.372E+00
   1   11    7     6     3    2.1394E+01  2.4650E-01   2.1148E+01  0.000E+00  0.000E+00  0.000E+00  1.03474E+03  1.108E+00  1.200E+01  6.000E-02  1.369E+00
   1   12    7     6     4    2.1148E+01  2.4603E-01   2.0902E+01  0.000E+00  0.000E+00  0.000E+00  1.03019E+03  1.101E+00  1.200E+01  6.000E-02  1.367E+00
   1   13    7     6     5    2.0902E+01 -1.7643E-02   2.0919E+01  0.000E+00  0.000E+00  0.000E+00  1.02701E+03  1.097E+00  1.200E+01  2.400E-01 -2.450E-02
   1   14    9     7     1    1.5000E+02  1.3345E+00   1.4867E+02  0.000E+00  0.000E+00  0.000E+00  1.03987E+03  2.288E+00  5.529E+01  5.593E-01  7.953E-01
   1   13    8     7     2    1.4867E+02  1.8340E+00   1.4683E+02  0.000E+00  0.000E+00  0.000E+00  1.03478E+03  2.279E+00  5.526E+01  6.148E-01  9.944E-01
   1   13    7     7     3    1.4683E+02  1.4577E+00   1.4537E+02  0.000E+00  0.000E+00  0.000E+00  1.02969E+03  2.271E+00  5.522E+01  5.585E-01  8.701E-01
   1   13    6     8     1    1.6629E+02  8.7801E-01   1.6542E+02  0.000E+00  0.000E+00  0.000E+00  1.02480E+03  2.925E+00  4.241E+01  4.322E-01  6.772E-01
   1   13    5     8     2    1.6542E+02  1.3043E-01   1.6528E+02  0.000E+00  0.000E+00  0.000E+00  1.01855E+03  2.922E+00  4.236E+01  4.317E-01  1.007E-01
   1   13    4     8     3    1.6528E+02 -2.6018E+00   1.6789E+02  0.000E+00  0.000E+00  0.000E+00  1.01230E+03  2.930E+00  4.248E+01  4.329E+00 -2.003E-01
   1   13    3     8     4    1.6789E+02 -3.7076E+00   1.7159E+02  0.000E+00  0.000E+00  0.000E+00  1.00608E+03  2.951E+00  4.278E+01  4.360E+00 -2.835E-01
   1   13    2     8     5    1.7159E+02 -2.5608E+00   1.7416E+02  0.000E+00  0.000E+00  0.000E+00  9.99846E+02  2.971E+00  4.308E+01  4.390E+00 -1.945E-01
   1   13    1     8     6    1.7416E+02 -1.9439E+00   1.7610E+02  0.000E+00  0.000E+00  0.000E+00  9.94860E+02  2.985E+00  4.329E+01  2.647E+00 -2.448E-01
   1    8    6     9     1    0.0000E+00  0.0000E+00   0.0000E+00  0.000E+00  0.000E+00  0.000E+00  1.07875E+03  0.000E+00  4.000E+00  0.000E+00  1.000E+00
   1    8    5     9     2    0.0000E+00  0.0000E+00   0.0000E+00  0.000E+00  0.000E+00  0.000E+00  1.07825E+03  0.000E+00  4.000E+00  0.000E+00  1.000E+00





UNSATURATED ZONE PACKAGE VOLUMETRIC BUDGET FOR  TIME STEP    30 STRESS PERIOD    2
  ------------------------------------------------------------------------------



     CUMULATIVE VOLUMES      L**3       RATES FOR THIS TIME STEP      L**3/T
     ------------------                 ------------------------

           IN:                                      IN:
           ---                                      ---
        INFILTRATION =     2302148.8727          INFILTRATION =           0.8475

          OUT:                                     OUT:
          ----                                     ----
              UZF ET =     1972485.7128                UZF ET =           0.7500
        UZF RECHARGE =       73224.0000          UZF RECHARGE =       0.0000E+00

            IN - OUT =      256439.1600              IN - OUT =       9.7500E-02

          STORAGE:                                 STORAGE:
          --------                                 --------
      STORAGE CHANGE =      256439.1819        STORAGE CHANGE =       9.7500E-02

 PERCENT DISCREPANCY IS DIFFERENCE BETWEEN IN-OUT MINUS CHANGE IN STORAGE
 DIVIDED BY THE AVERAGE OF IN AND OUT TIMES 100

 PERCENT DISCREPANCY =          -0.00     PERCENT DISCREPANCY =           0.00






1
  VOLUMETRIC BUDGET FOR AGRICULTURAL FIELDS AT  END OF TIME STEP   30, STRESS PERIOD   2
  ------------------------------------------------------------------------------

     CUMULATIVE VOLUMES      L**3       RATES FOR THIS TIME STEP      L**3/T
     ------------------                 ------------------------

           IN:                                      IN:
           ---                                      ---
           AG WELLS      =           0.0000             AG WELLS      =           0.0000
      DIVERSION SEGMENTS =           0.0000        DIVERSION SEGMENTS =           0.0000
           GW IRRIGATION =           0.0000             GW IRRIGATION =           0.0000
           SW IRRIGATION =           0.0000             SW IRRIGATION =           0.0000
        SYSTEM LOSSES GW =           0.0000          SYSTEM LOSSES GW =           0.0000
        SYSTEM LOSSES SW =           0.0000          SYSTEM LOSSES SW =           0.0000

                TOTAL IN =           0.0000                  TOTAL IN =           0.0000

          OUT:                                     OUT:
          ----                                     ----
           AG WELLS      =           0.0000             AG WELLS      =           0.0000
      DIVERSION SEGMENTS =           0.0000        DIVERSION SEGMENTS =           0.0000
           GW IRRIGATION =           0.0000             GW IRRIGATION =           0.0000
           SW IRRIGATION =           0.0000             SW IRRIGATION =           0.0000
        SYSTEM LOSSES GW =           0.0000          SYSTEM LOSSES GW =           0.0000
        SYSTEM LOSSES SW =           0.0000          SYSTEM LOSSES SW =           0.0000

               TOTAL OUT =           0.0000                 TOTAL OUT =           0.0000

                IN - OUT =           0.0000                  IN - OUT =           0.0000

     PERCENT DISCREPANCY =           0.00         PERCENT DISCREPANCY =           0.00



1
  VOLUMETRIC BUDGET FOR ENTIRE MODEL AT END OF TIME STEP   30, STRESS PERIOD   2
  ------------------------------------------------------------------------------

     CUMULATIVE VOLUMES      L**3       RATES FOR THIS TIME STEP      L**3/T
     ------------------                 ------------------------

           IN:                                      IN:
           ---                                      ---
             STORAGE     =     1717157.7500               STORAGE     =           0.5919
       CONSTANT HEAD     =           0.0000         CONSTANT HEAD     =           0.0000
     HEAD DEP BOUNDS     =      775921.8750       HEAD DEP BOUNDS     =           0.2857
      STREAM LEAKAGE     =    30472192.0000        STREAM LEAKAGE     =          11.2329
        UZF RECHARGE     =       73223.9531          UZF RECHARGE     =           0.0000
               GW ET     =           0.0000                 GW ET     =           0.0000
     SURFACE LEAKAGE     =           0.0000       SURFACE LEAKAGE     =           0.0000
           AG WELLS      =           0.0000             AG WELLS      =           0.0000

                TOTAL IN =    33038496.0000                  TOTAL IN =          12.1105

          OUT:                                     OUT:
          ----                                     ----
             STORAGE     =     3367968.7500               STORAGE     =           0.9902
       CONSTANT HEAD     =           0.0000         CONSTANT HEAD     =           0.0000
     HEAD DEP BOUNDS     =      782284.1250       HEAD DEP BOUNDS     =           0.2886
      STREAM LEAKAGE     =    28888704.0000        STREAM LEAKAGE     =          10.8318
        UZF RECHARGE     =           0.0000          UZF RECHARGE     =           0.0000
               GW ET     =           0.0000                 GW ET     =           0.0000
     SURFACE LEAKAGE     =           0.0000       SURFACE LEAKAGE     =           0.0000
           AG WELLS      =           0.0000             AG WELLS      =           0.0000

               TOTAL OUT =    33038956.0000                 TOTAL OUT =          12.1106

                IN - OUT =        -460.0000                  IN - OUT =      -1.1063E-04

     PERCENT DISCREPANCY =          -0.00         PERCENT DISCREPANCY =          -0.00






         TIME SUMMARY AT END OF TIME STEP   30 IN STRESS PERIOD    2
                    SECONDS     MINUTES      HOURS       DAYS        YEARS
                    -----------------------------------------------------------
   TIME STEP LENGTH  87667.      1461.1      24.352      1.0147     2.77799E-03
 STRESS PERIOD TIME 2.63000E+06  43833.      730.56      30.440     8.33397E-02
         TOTAL TIME 2.71640E+06  45273.      754.56      31.440     8.60775E-02
1
1
                            STRESS PERIOD NO.    3, LENGTH =   2630000.    
                            -----------------------------------------------

                              NUMBER OF TIME STEPS =    30

                               MULTIPLIER FOR DELT =     1.000

                            INITIAL TIME STEP SIZE =   87666.66    

 REUSING NON-PARAMETER GHB CELLS FROM LAST STRESS PERIOD

      2 GHB CELLS

 REUSING STREAM SEGMENT DATA FROM LAST STRESS PERIOD



            AREAL INFILTRATION RATE
 READING ON UNIT   19 WITH FORMAT: (FREE)              

            1           2           3           4           5           6           7           8           9          10
 ........................................................................................................................
   1   1.0000E-10  2.0000E-10   0.000       0.000       0.000       0.000       0.000       0.000       0.000       0.000    
   2   2.0000E-10  1.0000E-10  2.0000E-10   0.000       0.000      8.0000E-10  8.0000E-10  5.0000E-10   0.000       0.000    
   3    0.000      5.0000E-10  1.0000E-10  1.0000E-10  8.0000E-10  8.0000E-10  5.0000E-10  5.0000E-10   0.000       0.000    
   4   8.0000E-10  5.0000E-10  1.0000E-10  1.0000E-10  1.0000E-10  1.0000E-10  1.0000E-10  1.0000E-10  2.0000E-10   0.000    
   5   8.0000E-10  5.0000E-10  1.0000E-10  1.0000E-10  1.0000E-10  1.0000E-10  1.0000E-10  1.0000E-10  1.0000E-10  1.0000E-10
   6   8.0000E-10  5.0000E-10  5.0000E-10  2.0000E-10  2.0000E-10  1.0000E-10  1.0000E-10  1.0000E-10  1.0000E-10  5.0000E-10
   7   8.0000E-10  5.0000E-10  5.0000E-10  2.0000E-10  2.0000E-10  1.0000E-10  1.0000E-10  2.0000E-10  2.0000E-10   0.000    
   8    0.000      5.0000E-10  5.0000E-10  2.0000E-10  2.0000E-10  1.0000E-10  1.0000E-10  2.0000E-10  5.0000E-10   0.000    
   9    0.000      5.0000E-10  5.0000E-10  2.0000E-10  2.0000E-10  1.0000E-10  1.0000E-10  2.0000E-10  5.0000E-10   0.000    
  10    0.000      5.0000E-10  5.0000E-10  2.0000E-10  2.0000E-10  1.0000E-10  1.0000E-10  2.0000E-10  5.0000E-10  8.0000E-10
  11    0.000      1.0000E-10  1.0000E-10  1.0000E-10  1.0000E-10  1.0000E-10  1.0000E-10  2.0000E-10  5.0000E-10   0.000    
  12   1.0000E-10  1.0000E-10  1.0000E-10  1.0000E-10  1.0000E-10  1.0000E-10  1.0000E-10  1.0000E-10  2.0000E-10   0.000    
  13   1.0000E-10  1.0000E-10  2.0000E-10  2.0000E-10  2.0000E-10  2.0000E-10  2.0000E-10  1.0000E-10  1.0000E-10   0.000    
  14    0.000      2.0000E-10  5.0000E-10  5.0000E-10  5.0000E-10  5.0000E-10  5.0000E-10  2.0000E-10  1.0000E-10   0.000    
  15    0.000       0.000      8.0000E-10  8.0000E-10  8.0000E-10  8.0000E-10   0.000       0.000       0.000       0.000    

                  ET RATE =  5.000000E-10

 USING ET EXTINCTION DEPTH FROM PREVIOUS STRESS PERIOD. CURRENT PERIOD IS:       3

 USING EXTINCTION WATER CONTENT FROM PREVIOUS STRESS PERIOD. CURRENT PERIOD IS:       3

 USING AIR ENTRY PRESSURE FROM PREVIOUS STRESS PERIOD. CURRENT PERIOD IS:       3

 USING ROOT PRESSURE HEAD FROM PREVIOUS STRESS PERIOD. CURRENT PERIOD IS:       3

 USING ROOT ACTIVITY FROM PREVIOUS STRESS PERIOD. CURRENT PERIOD IS:       3

 PROCESSING AG STRESS PERIOD DATA

 READING AG STRESS PERIOD DATA

 READING IRRIGATION SEGMENT

 READING IRRIGATION WELL

 READING SUPPLEMENTAL WELL

 END PROCESSING AG STRESS PERIOD DATA OPTIONS
 
 SOLVING FOR HEAD 
                                                   Max.-Head-Change                         Max.-Flux-Residual
  Residual-Control   Outer-Iter.   Inner-Iter.     Column Row Layer    Maximum-Head-Change  Column Row Layer    Maximum-Flux-Residual          L2-NORM 
          0                 1           2             2    2     1       0.3921640727E-02       2    2    1         0.2048605367E+00      0.4998719366E+00
          0                 2           2             7   13     1      -0.6931948785E-03       7   13    1        -0.3837497749E-01      0.6128776747E-01
          0                 3           1             7   13     1       0.4719176522E-04       7   13    1         0.2685570582E-02      0.4239795562E-02

    ------------------------------------------------
       NWT REQUIRED            3 OUTER ITERATIONS 
       AND A TOTAL OF          5 INNER ITERATIONS.
    ------------------------------------------------

 NO OUTPUT CONTROL FOR STRESS PERIOD    3   TIME STEP    1
 
 SOLVING FOR HEAD 
                                                   Max.-Head-Change                         Max.-Flux-Residual
  Residual-Control   Outer-Iter.   Inner-Iter.     Column Row Layer    Maximum-Head-Change  Column Row Layer    Maximum-Flux-Residual          L2-NORM 
          0                 1           2             2   13     1       0.5737848324E-02       4   13    1         0.3262450960E+00      0.7450786839E+00
          0                 2           2             4   13     1      -0.5480878175E-03       4   13    1        -0.3228390834E-01      0.7315651980E-01
          0                 3           1             4   13     1       0.3677863260E-04       4   13    1         0.2227302336E-02      0.4995162275E-02

    ------------------------------------------------
       NWT REQUIRED            3 OUTER ITERATIONS 
       AND A TOTAL OF          5 INNER ITERATIONS.
    ------------------------------------------------

 NO OUTPUT CONTROL FOR STRESS PERIOD    3   TIME STEP    2
 
 SOLVING FOR HEAD 
                                                   Max.-Head-Change                         Max.-Flux-Residual
  Residual-Control   Outer-Iter.   Inner-Iter.     Column Row Layer    Maximum-Head-Change  Column Row Layer    Maximum-Flux-Residual          L2-NORM 
          0                 1           2             2   13     1       0.5310463294E-02       2   13    1         0.2989811985E+00      0.7084675238E+00
          0                 2           2             4   13     1      -0.4975366923E-03       4   13    1        -0.2928598003E-01      0.6963272701E-01
          0                 3           1             4   13     1       0.3336997042E-04       4   13    1         0.2019443943E-02      0.4761546779E-02

    ------------------------------------------------
       NWT REQUIRED            3 OUTER ITERATIONS 
       AND A TOTAL OF          5 INNER ITERATIONS.
    ------------------------------------------------

 NO OUTPUT CONTROL FOR STRESS PERIOD    3   TIME STEP    3
 
 SOLVING FOR HEAD 
                                                   Max.-Head-Change                         Max.-Flux-Residual
  Residual-Control   Outer-Iter.   Inner-Iter.     Column Row Layer    Maximum-Head-Change  Column Row Layer    Maximum-Flux-Residual          L2-NORM 
          0                 1           2             2   13     1       0.4915335462E-02       2   13    1         0.2767006368E+00      0.6757128720E+00
          0                 2           2             2    2     1      -0.4665859467E-03       4   13    1        -0.2658701655E-01      0.6648371856E-01
          0                 3           1             2    2     1       0.3177276404E-04       4   13    1         0.1833410050E-02      0.4552599550E-02

    ------------------------------------------------
       NWT REQUIRED            3 OUTER ITERATIONS 
       AND A TOTAL OF          5 INNER ITERATIONS.
    ------------------------------------------------

 NO OUTPUT CONTROL FOR STRESS PERIOD    3   TIME STEP    4
 
 SOLVING FOR HEAD 
                                                   Max.-Head-Change                         Max.-Flux-Residual
  Residual-Control   Outer-Iter.   Inner-Iter.     Column Row Layer    Maximum-Head-Change  Column Row Layer    Maximum-Flux-Residual          L2-NORM 
          0                 1           2             2    2     1       0.4764247491E-02       2   13    1         0.2561076174E+00      0.6464225526E+00
          0                 2           2             2    2     1      -0.4634322824E-03       2    2    1        -0.2488671475E-01      0.6366872501E-01
          0                 3           1             2    2     1       0.3155801145E-04       2    2    1         0.1742070209E-02      0.4365937162E-02

    ------------------------------------------------
       NWT REQUIRED            3 OUTER ITERATIONS 
       AND A TOTAL OF          5 INNER ITERATIONS.
    ------------------------------------------------

 NO OUTPUT CONTROL FOR STRESS PERIOD    3   TIME STEP    5
 
 SOLVING FOR HEAD 
                                                   Max.-Head-Change                         Max.-Flux-Residual
  Residual-Control   Outer-Iter.   Inner-Iter.     Column Row Layer    Maximum-Head-Change  Column Row Layer    Maximum-Flux-Residual          L2-NORM 
          0                 1           2             2    2     1       0.4732200352E-02       2    2    1         0.2471810290E+00      0.6202312920E+00
          0                 2           2             2    2     1      -0.4603149523E-03       2    2    1        -0.2471816257E-01      0.6115467715E-01
          0                 3           1             2    2     1       0.3134573327E-04       2    2    1         0.1730271577E-02      0.4199957212E-02

    ------------------------------------------------
       NWT REQUIRED            3 OUTER ITERATIONS 
       AND A TOTAL OF          5 INNER ITERATIONS.
    ------------------------------------------------

 NO OUTPUT CONTROL FOR STRESS PERIOD    3   TIME STEP    6
 
 SOLVING FOR HEAD 
                                                   Max.-Head-Change                         Max.-Flux-Residual
  Residual-Control   Outer-Iter.   Inner-Iter.     Column Row Layer    Maximum-Head-Change  Column Row Layer    Maximum-Flux-Residual          L2-NORM 
          0                 1           2             2    2     1       0.4700606368E-02       2    2    1         0.2455194204E+00      0.5968142160E+00
          0                 2           2             2    2     1      -0.4572417024E-03       2    2    1        -0.2455200061E-01      0.5890799368E-01
          0                 3           1             2    2     1       0.3113645612E-04       2    2    1         0.1718640229E-02      0.4051671167E-02

    ------------------------------------------------
       NWT REQUIRED            3 OUTER ITERATIONS 
       AND A TOTAL OF          5 INNER ITERATIONS.
    ------------------------------------------------

 NO OUTPUT CONTROL FOR STRESS PERIOD    3   TIME STEP    7
 
 SOLVING FOR HEAD 
                                                   Max.-Head-Change                         Max.-Flux-Residual
  Residual-Control   Outer-Iter.   Inner-Iter.     Column Row Layer    Maximum-Head-Change  Column Row Layer    Maximum-Flux-Residual          L2-NORM 
          0                 1           2             2    2     1       0.4669458605E-02       2    2    1         0.2438813074E+00      0.5758725219E+00
          0                 2           2             2    2     1      -0.4542118580E-03       2    2    1        -0.2438818822E-01      0.5689915039E-01
          0                 3           1             2    2     1       0.3093013525E-04       2    2    1         0.1707173378E-02      0.3920168642E-02

    ------------------------------------------------
       NWT REQUIRED            3 OUTER ITERATIONS 
       AND A TOTAL OF          5 INNER ITERATIONS.
    ------------------------------------------------

 NO OUTPUT CONTROL FOR STRESS PERIOD    3   TIME STEP    8
 
 SOLVING FOR HEAD 
                                                   Max.-Head-Change                         Max.-Flux-Residual
  Residual-Control   Outer-Iter.   Inner-Iter.     Column Row Layer    Maximum-Head-Change  Column Row Layer    Maximum-Flux-Residual          L2-NORM 
          0                 1           2             2    2     1       0.4638749856E-02       2    2    1         0.2422663304E+00      0.5571329727E+00
          0                 2           2             2    2     1      -0.4512247179E-03       2    2    1        -0.2422668944E-01      0.5510234032E-01
          0                 3           1             2    2     1       0.3072672238E-04       2    2    1         0.1695868471E-02      0.3800779545E-02

    ------------------------------------------------
       NWT REQUIRED            3 OUTER ITERATIONS 
       AND A TOTAL OF          5 INNER ITERATIONS.
    ------------------------------------------------

 NO OUTPUT CONTROL FOR STRESS PERIOD    3   TIME STEP    9
 
 SOLVING FOR HEAD 
                                                   Max.-Head-Change                         Max.-Flux-Residual
  Residual-Control   Outer-Iter.   Inner-Iter.     Column Row Layer    Maximum-Head-Change  Column Row Layer    Maximum-Flux-Residual          L2-NORM 
          0                 1           2             2    2     1       0.4608473399E-02       2    2    1         0.2406741158E+00      0.5403538691E+00
          0                 2           2             2    2     1      -0.4482796287E-03       2    2    1        -0.2406746696E-01      0.5349350062E-01
          0                 3           1             2    2     1       0.3052617279E-04       2    2    1         0.1684722895E-02      0.3694716576E-02

    ------------------------------------------------
       NWT REQUIRED            3 OUTER ITERATIONS 
       AND A TOTAL OF          5 INNER ITERATIONS.
    ------------------------------------------------

 NO OUTPUT CONTROL FOR STRESS PERIOD    3   TIME STEP   10
 
 SOLVING FOR HEAD 
                                                   Max.-Head-Change                         Max.-Flux-Residual
  Residual-Control   Outer-Iter.   Inner-Iter.     Column Row Layer    Maximum-Head-Change  Column Row Layer    Maximum-Flux-Residual          L2-NORM 
          0                 1           2             2    2     1       0.4578535511E-02       2    2    1         0.2390997796E+00      0.5253116936E+00
          0                 2           2             2    2     1      -0.4453674732E-03       2    2    1        -0.2391003232E-01      0.5205008379E-01
          0                 3           1             2    2     1       0.3032786614E-04       2    2    1         0.1673702482E-02      0.3600745662E-02

    ------------------------------------------------
       NWT REQUIRED            3 OUTER ITERATIONS 
       AND A TOTAL OF          5 INNER ITERATIONS.
    ------------------------------------------------

 NO OUTPUT CONTROL FOR STRESS PERIOD    3   TIME STEP   11
 
 SOLVING FOR HEAD 
                                                   Max.-Head-Change                         Max.-Flux-Residual
  Residual-Control   Outer-Iter.   Inner-Iter.     Column Row Layer    Maximum-Head-Change  Column Row Layer    Maximum-Flux-Residual          L2-NORM 
          0                 1           2             2    2     1       0.4549016790E-02       2    2    1         0.2375475332E+00      0.5118069374E+00
          0                 2           2             2    2     1      -0.4424960918E-03       2    2    1        -0.2375480670E-01      0.5075393659E-01
          0                 3           1             2    2     1       0.3013233568E-04       2    2    1         0.1662836691E-02      0.3513181357E-02

    ------------------------------------------------
       NWT REQUIRED            3 OUTER ITERATIONS 
       AND A TOTAL OF          5 INNER ITERATIONS.
    ------------------------------------------------

 NO OUTPUT CONTROL FOR STRESS PERIOD    3   TIME STEP   12
 
 SOLVING FOR HEAD 
                                                   Max.-Head-Change                         Max.-Flux-Residual
  Residual-Control   Outer-Iter.   Inner-Iter.     Column Row Layer    Maximum-Head-Change  Column Row Layer    Maximum-Flux-Residual          L2-NORM 
          0                 1           2             2    2     1       0.4519910909E-02       2    2    1         0.2360170202E+00      0.4996684567E+00
          0                 2           2             2    2     1      -0.4396648691E-03       2    2    1        -0.2360175446E-01      0.4959089536E-01
          0                 3           1             2    2     1       0.2993953974E-04       2    2    1         0.1652123025E-02      0.3436755389E-02

    ------------------------------------------------
       NWT REQUIRED            3 OUTER ITERATIONS 
       AND A TOTAL OF          5 INNER ITERATIONS.
    ------------------------------------------------

 NO OUTPUT CONTROL FOR STRESS PERIOD    3   TIME STEP   13
 
 SOLVING FOR HEAD 
                                                   Max.-Head-Change                         Max.-Flux-Residual
  Residual-Control   Outer-Iter.   Inner-Iter.     Column Row Layer    Maximum-Head-Change  Column Row Layer    Maximum-Flux-Residual          L2-NORM 
          0                 1           2             2    2     1       0.4491211212E-02       2    2    1         0.2345079124E+00      0.4887377962E+00
          0                 2           2             2    2     1      -0.4368731566E-03       2    2    1        -0.2345084272E-01      0.4853933631E-01
          0                 3           1             2    2     1       0.2974943478E-04       2    2    1         0.1641559221E-02      0.3367082809E-02

    ------------------------------------------------
       NWT REQUIRED            3 OUTER ITERATIONS 
       AND A TOTAL OF          5 INNER ITERATIONS.
    ------------------------------------------------

 NO OUTPUT CONTROL FOR STRESS PERIOD    3   TIME STEP   14
 
 SOLVING FOR HEAD 
                                                   Max.-Head-Change                         Max.-Flux-Residual
  Residual-Control   Outer-Iter.   Inner-Iter.     Column Row Layer    Maximum-Head-Change  Column Row Layer    Maximum-Flux-Residual          L2-NORM 
          0                 1           2             2    2     1       0.4462824820E-02       2    2    1         0.2330153288E+00      0.4788720613E+00
          0                 2           2             2    2     1      -0.4341119208E-03       2    2    1        -0.2330158345E-01      0.4759143368E-01
          0                 3           1             2    2     1       0.2956140520E-04       2    2    1         0.1631111074E-02      0.3304041970E-02

    ------------------------------------------------
       NWT REQUIRED            3 OUTER ITERATIONS 
       AND A TOTAL OF          5 INNER ITERATIONS.
    ------------------------------------------------

 NO OUTPUT CONTROL FOR STRESS PERIOD    3   TIME STEP   15
 
 SOLVING FOR HEAD 
                                                   Max.-Head-Change                         Max.-Flux-Residual
  Residual-Control   Outer-Iter.   Inner-Iter.     Column Row Layer    Maximum-Head-Change  Column Row Layer    Maximum-Flux-Residual          L2-NORM 
          0                 1           2             2    2     1       0.4434832751E-02       2    2    1         0.2315435257E+00      0.4699384686E+00
          0                 2           2             2    2     1      -0.4313890423E-03       2    2    1        -0.2315440224E-01      0.4673193446E-01
          0                 3           1             2    2     1       0.2937598731E-04       2    2    1         0.1620808387E-02      0.3247045045E-02

    ------------------------------------------------
       NWT REQUIRED            3 OUTER ITERATIONS 
       AND A TOTAL OF          5 INNER ITERATIONS.
    ------------------------------------------------

 NO OUTPUT CONTROL FOR STRESS PERIOD    3   TIME STEP   16
 
 SOLVING FOR HEAD 
                                                   Max.-Head-Change                         Max.-Flux-Residual
  Residual-Control   Outer-Iter.   Inner-Iter.     Column Row Layer    Maximum-Head-Change  Column Row Layer    Maximum-Flux-Residual          L2-NORM 
          0                 1           2             2    2     1       0.4407229088E-02       2    2    1         0.2300921678E+00      0.4618380669E+00
          0                 2           2             2    2     1      -0.4287039453E-03       2    2    1        -0.2300926558E-01      0.4595220682E-01
          0                 3           1             2    2     1       0.2919314206E-04       2    2    1         0.1610648823E-02      0.3194967980E-02

    ------------------------------------------------
       NWT REQUIRED            3 OUTER ITERATIONS 
       AND A TOTAL OF          5 INNER ITERATIONS.
    ------------------------------------------------

 NO OUTPUT CONTROL FOR STRESS PERIOD    3   TIME STEP   17
 
 SOLVING FOR HEAD 
                                                   Max.-Head-Change                         Max.-Flux-Residual
  Residual-Control   Outer-Iter.   Inner-Iter.     Column Row Layer    Maximum-Head-Change  Column Row Layer    Maximum-Flux-Residual          L2-NORM 
          0                 1           2             2    2     1       0.4379997062E-02       2    2    1         0.2286604169E+00      0.4544617525E+00
          0                 2           2             2    2     1      -0.4260549990E-03       2    2    1        -0.2286608963E-01      0.4524107121E-01
          0                 3           1             2    2     1       0.2901275916E-04       2    2    1         0.1600626526E-02      0.3147893789E-02

    ------------------------------------------------
       NWT REQUIRED            3 OUTER ITERATIONS 
       AND A TOTAL OF          5 INNER ITERATIONS.
    ------------------------------------------------

 NO OUTPUT CONTROL FOR STRESS PERIOD    3   TIME STEP   18
 
 SOLVING FOR HEAD 
                                                   Max.-Head-Change                         Max.-Flux-Residual
  Residual-Control   Outer-Iter.   Inner-Iter.     Column Row Layer    Maximum-Head-Change  Column Row Layer    Maximum-Flux-Residual          L2-NORM 
          0                 1           2             2    2     1       0.4353151369E-02       2    2    1         0.2272489978E+00      0.4477424130E+00
          0                 2           2             2    2     1      -0.4234436319E-03       2    2    1        -0.2272494686E-01      0.4459267484E-01
          0                 3           1             2    2     1       0.2883493470E-04       2    2    1         0.1590746523E-02      0.3105138536E-02

    ------------------------------------------------
       NWT REQUIRED            3 OUTER ITERATIONS 
       AND A TOTAL OF          5 INNER ITERATIONS.
    ------------------------------------------------

 NO OUTPUT CONTROL FOR STRESS PERIOD    3   TIME STEP   19
 
 SOLVING FOR HEAD 
                                                   Max.-Head-Change                         Max.-Flux-Residual
  Residual-Control   Outer-Iter.   Inner-Iter.     Column Row Layer    Maximum-Head-Change  Column Row Layer    Maximum-Flux-Residual          L2-NORM 
          0                 1           2             2    2     1       0.4326589338E-02       2    2    1         0.2258525414E+00      0.4415879275E+00
          0                 2           2             2    2     1      -0.4208598585E-03       2    2    1        -0.2258530042E-01      0.4399820735E-01
          0                 3           1             2    2     1       0.2865898918E-04       2    2    1         0.1580971273E-02      0.3065258862E-02

    ------------------------------------------------
       NWT REQUIRED            3 OUTER ITERATIONS 
       AND A TOTAL OF          5 INNER ITERATIONS.
    ------------------------------------------------

 NO OUTPUT CONTROL FOR STRESS PERIOD    3   TIME STEP   20
 
 SOLVING FOR HEAD 
                                                   Max.-Head-Change                         Max.-Flux-Residual
  Residual-Control   Outer-Iter.   Inner-Iter.     Column Row Layer    Maximum-Head-Change  Column Row Layer    Maximum-Flux-Residual          L2-NORM 
          0                 1           2             2    2     1       0.4300478965E-02       2    2    1         0.2244798663E+00      0.4359393856E+00
          0                 2           2             2    2     1      -0.4183200194E-03       2    2    1        -0.2244803214E-01      0.4345138173E-01
          0                 3           1             2    2     1       0.2848603546E-04       2    2    1         0.1571362492E-02      0.3028301030E-02

    ------------------------------------------------
       NWT REQUIRED            3 OUTER ITERATIONS 
       AND A TOTAL OF          5 INNER ITERATIONS.
    ------------------------------------------------

 NO OUTPUT CONTROL FOR STRESS PERIOD    3   TIME STEP   21
 
 SOLVING FOR HEAD 
                                                   Max.-Head-Change                         Max.-Flux-Residual
  Residual-Control   Outer-Iter.   Inner-Iter.     Column Row Layer    Maximum-Head-Change  Column Row Layer    Maximum-Flux-Residual          L2-NORM 
          0                 1           2             2    2     1       0.4274640541E-02       2    2    1         0.2231215352E+00      0.4307383254E+00
          0                 2           2             2    2     1      -0.4158066334E-03       2    2    1        -0.2231219824E-01      0.4294771498E-01
          0                 3           1             2    2     1       0.2831488352E-04       2    2    1         0.1561854118E-02      0.2994621151E-02

    ------------------------------------------------
       NWT REQUIRED            3 OUTER ITERATIONS 
       AND A TOTAL OF          5 INNER ITERATIONS.
    ------------------------------------------------

 NO OUTPUT CONTROL FOR STRESS PERIOD    3   TIME STEP   22
 
 SOLVING FOR HEAD 
                                                   Max.-Head-Change                         Max.-Flux-Residual
  Residual-Control   Outer-Iter.   Inner-Iter.     Column Row Layer    Maximum-Head-Change  Column Row Layer    Maximum-Flux-Residual          L2-NORM 
          0                 1           2             2    2     1       0.4249069433E-02       2    2    1         0.2217773042E+00      0.4259341993E+00
          0                 2           2             2    2     1      -0.4133192505E-03       2    2    1        -0.2217777439E-01      0.4248109880E-01
          0                 3           1             2    2     1       0.2814550214E-04       2    2    1         0.1552444457E-02      0.2963466062E-02

    ------------------------------------------------
       NWT REQUIRED            3 OUTER ITERATIONS 
       AND A TOTAL OF          5 INNER ITERATIONS.
    ------------------------------------------------

 NO OUTPUT CONTROL FOR STRESS PERIOD    3   TIME STEP   23
 
 SOLVING FOR HEAD 
                                                   Max.-Head-Change                         Max.-Flux-Residual
  Residual-Control   Outer-Iter.   Inner-Iter.     Column Row Layer    Maximum-Head-Change  Column Row Layer    Maximum-Flux-Residual          L2-NORM 
          0                 1           2             2    2     1       0.4223934285E-02       2    2    1         0.2204560075E+00      0.4214811018E+00
          0                 2           2             2    2     1      -0.4108742747E-03       2    2    1        -0.2204564396E-01      0.4204810077E-01
          0                 3           1             2    2     1       0.2797900841E-04       2    2    1         0.1543195329E-02      0.2934244818E-02

    ------------------------------------------------
       NWT REQUIRED            3 OUTER ITERATIONS 
       AND A TOTAL OF          5 INNER ITERATIONS.
    ------------------------------------------------

 NO OUTPUT CONTROL FOR STRESS PERIOD    3   TIME STEP   24
 
 SOLVING FOR HEAD 
                                                   Max.-Head-Change                         Max.-Flux-Residual
  Residual-Control   Outer-Iter.   Inner-Iter.     Column Row Layer    Maximum-Head-Change  Column Row Layer    Maximum-Flux-Residual          L2-NORM 
          0                 1           2             2    2     1       0.4199142071E-02       2    2    1         0.2191527778E+00      0.4173408621E+00
          0                 2           2             2    2     1      -0.4084626574E-03       2    2    1        -0.2191532027E-01      0.4164516098E-01
          0                 3           1             2    2     1       0.2781478627E-04       2    2    1         0.1534072676E-02      0.2906891072E-02

    ------------------------------------------------
       NWT REQUIRED            3 OUTER ITERATIONS 
       AND A TOTAL OF          5 INNER ITERATIONS.
    ------------------------------------------------

 NO OUTPUT CONTROL FOR STRESS PERIOD    3   TIME STEP   25
 
 SOLVING FOR HEAD 
                                                   Max.-Head-Change                         Max.-Flux-Residual
  Residual-Control   Outer-Iter.   Inner-Iter.     Column Row Layer    Maximum-Head-Change  Column Row Layer    Maximum-Flux-Residual          L2-NORM 
          0                 1           2             2    2     1       0.4174600530E-02       2    2    1         0.2178627913E+00      0.4134797904E+00
          0                 2           2             2    2     1      -0.4060754240E-03       2    2    1        -0.2178632090E-01      0.4126956013E-01
          0                 3           1             2    2     1       0.2765222511E-04       2    2    1         0.1525042735E-02      0.2881935758E-02

    ------------------------------------------------
       NWT REQUIRED            3 OUTER ITERATIONS 
       AND A TOTAL OF          5 INNER ITERATIONS.
    ------------------------------------------------

 NO OUTPUT CONTROL FOR STRESS PERIOD    3   TIME STEP   26
 
 SOLVING FOR HEAD 
                                                   Max.-Head-Change                         Max.-Flux-Residual
  Residual-Control   Outer-Iter.   Inner-Iter.     Column Row Layer    Maximum-Head-Change  Column Row Layer    Maximum-Flux-Residual          L2-NORM 
          0                 1           2             2    2     1       0.4150391834E-02       2    2    1         0.2165903393E+00      0.4098650537E+00
          0                 2           2             2    2     1      -0.4037205679E-03       2    2    1        -0.2165907503E-01      0.4092682611E-01
          0                 3           1             2    2     1       0.2749186784E-04       2    2    1         0.1516135520E-02      0.2858546844E-02

    ------------------------------------------------
       NWT REQUIRED            3 OUTER ITERATIONS 
       AND A TOTAL OF          5 INNER ITERATIONS.
    ------------------------------------------------

 NO OUTPUT CONTROL FOR STRESS PERIOD    3   TIME STEP   27
 
 SOLVING FOR HEAD 
                                                   Max.-Head-Change                         Max.-Flux-Residual
  Residual-Control   Outer-Iter.   Inner-Iter.     Column Row Layer    Maximum-Head-Change  Column Row Layer    Maximum-Flux-Residual          L2-NORM 
          0                 1           2             2    2     1       0.4126511094E-02       2    2    1         0.2153351449E+00      0.4064678185E+00
          0                 2           2             2    2     1      -0.4013976122E-03       2    2    1        -0.2153355489E-01      0.4058387104E-01
          0                 3           1             2    2     1       0.2733368347E-04       2    2    1         0.1507349112E-02      0.2835223243E-02

    ------------------------------------------------
       NWT REQUIRED            3 OUTER ITERATIONS 
       AND A TOTAL OF          5 INNER ITERATIONS.
    ------------------------------------------------

 NO OUTPUT CONTROL FOR STRESS PERIOD    3   TIME STEP   28
 
 SOLVING FOR HEAD 
                                                   Max.-Head-Change                         Max.-Flux-Residual
  Residual-Control   Outer-Iter.   Inner-Iter.     Column Row Layer    Maximum-Head-Change  Column Row Layer    Maximum-Flux-Residual          L2-NORM 
          0                 1           2             2    2     1       0.4102953139E-02       2    2    1         0.2140969548E+00      0.4032579467E+00
          0                 2           2             2    2     1      -0.3991060559E-03       2    2    1        -0.2140973524E-01      0.4026944594E-01
          0                 3           1             2    2     1       0.2717763674E-04       2    2    1         0.1498681733E-02      0.2814509076E-02

    ------------------------------------------------
       NWT REQUIRED            3 OUTER ITERATIONS 
       AND A TOTAL OF          5 INNER ITERATIONS.
    ------------------------------------------------

 NO OUTPUT CONTROL FOR STRESS PERIOD    3   TIME STEP   29
 
 SOLVING FOR HEAD 
                                                   Max.-Head-Change                         Max.-Flux-Residual
  Residual-Control   Outer-Iter.   Inner-Iter.     Column Row Layer    Maximum-Head-Change  Column Row Layer    Maximum-Flux-Residual          L2-NORM 
          0                 1           2             4   13     1       0.9279378985E-02       4   13    1         0.5331634570E+00      0.1129361325E+01
          0                 2           2             4   13     1      -0.8928503052E-03       4   13    1        -0.5274537437E-01      0.1105072739E+00
          0                 3           1             4   13     1       0.5989610090E-04       4   13    1         0.3637934295E-02      0.7507072825E-02

    ------------------------------------------------
       NWT REQUIRED            3 OUTER ITERATIONS 
       AND A TOTAL OF          5 INNER ITERATIONS.
    ------------------------------------------------

 NO OUTPUT CONTROL FOR STRESS PERIOD    3   TIME STEP   30



 STREAM LISTING     PERIOD      3   STEP       30

 LAYER ROW COL. STREAM  RCH.  FLOW INTO     FLOW TO   FLOW OUT OF   OVRLND.     DIRECT     STREAM       STREAM     STREAM     STREAM   STREAMBED  STREAMBED
                SEG.NO.  NO.  STRM. RCH.    AQUIFER    STRM. RCH.    RUNOFF     PRECIP       ET          HEAD       DEPTH      WIDTH   CONDCTNC.   GRADIENT

   1    1    1     1     1    5.4376E+01  3.5202E-01   5.4024E+01  0.000E+00  0.000E+00  0.000E+00  1.09450E+03  1.455E+00  1.756E+01  7.901E-02  1.485E+00
   1    2    2     1     2    5.4024E+01  5.4505E-01   5.3479E+01  0.000E+00  0.000E+00  0.000E+00  1.08951E+03  1.449E+00  1.750E+01  1.225E-01  1.483E+00
   1    3    3     1     3    5.3479E+01  4.6474E-01   5.3014E+01  0.000E+00  0.000E+00  0.000E+00  1.08386E+03  1.443E+00  1.743E+01  1.046E-01  1.481E+00
   1    3    4     1     4    5.3014E+01  4.2788E-01   5.2587E+01  0.000E+00  0.000E+00  0.000E+00  1.07884E+03  1.437E+00  1.738E+01  9.643E-02  1.479E+00
   1    4    5     2     1    5.0587E+01  3.7745E-01   5.0209E+01  0.000E+00  0.000E+00  0.000E+00  1.07377E+03  1.839E+00  1.200E+01  7.800E-02  1.613E+00
   1    5    6     2     2    5.0209E+01  2.8990E-01   4.9919E+01  0.000E+00  0.000E+00  0.000E+00  1.06834E+03  1.832E+00  1.200E+01  6.000E-02  1.611E+00
   1    6    6     2     3    4.9919E+01  2.8952E-01   4.9630E+01  0.000E+00  0.000E+00  0.000E+00  1.06362E+03  1.825E+00  1.200E+01  6.000E-02  1.608E+00
   1    7    6     2     4    4.9630E+01  2.8914E-01   4.9341E+01  0.000E+00  0.000E+00  0.000E+00  1.05889E+03  1.819E+00  1.200E+01  6.000E-02  1.606E+00
   1    8    6     2     5    4.9341E+01  2.8876E-01   4.9052E+01  0.000E+00  0.000E+00  0.000E+00  1.05417E+03  1.813E+00  1.200E+01  6.000E-02  1.604E+00
   1    3    5     3     1    2.0000E+00  2.8252E-01   1.7175E+00  0.000E+00  0.000E+00  0.000E+00  1.07555E+03  1.909E+00  9.636E+00  7.227E-02  1.955E+00
   1    3    6     3     2    1.7175E+00  2.4905E-01   1.4684E+00  0.000E+00  0.000E+00  0.000E+00  1.07264E+03  1.727E+00  8.909E+00  6.682E-02  1.864E+00
   1    3    7     3     3    1.4684E+00  1.9718E-01   1.2712E+00  0.000E+00  0.000E+00  0.000E+00  1.06987E+03  1.555E+00  8.218E+00  5.547E-02  1.777E+00
   1    4    8     3     4    1.2712E+00  2.2567E-01   1.0456E+00  0.000E+00  0.000E+00  0.000E+00  1.06682E+03  1.364E+00  7.455E+00  6.709E-02  1.682E+00
   1    5    8     3     5    1.0456E+00  1.5790E-01   8.8768E-01  0.000E+00  0.000E+00  0.000E+00  1.06362E+03  1.164E+00  6.655E+00  4.991E-02  1.582E+00
   1    6    8     3     6    8.8768E-01  5.5980E-02   8.3170E-01  0.000E+00  0.000E+00  0.000E+00  1.06158E+03  1.036E+00  6.145E+00  1.844E-02  1.518E+00
   1    5   10     4     1    1.0000E+01  9.0919E-02   9.9091E+00  0.000E+00  0.000E+00  0.000E+00  1.07836E+03  6.368E-01  1.000E+01  2.500E-02  1.212E+00
   1    5    9     4     2    9.9091E+00  1.8158E-01   9.7275E+00  0.000E+00  0.000E+00  0.000E+00  1.07154E+03  6.315E-01  1.000E+01  5.000E-02  1.211E+00
   1    6    8     4     3    9.7275E+00  1.2689E-01   9.6006E+00  0.000E+00  0.000E+00  0.000E+00  1.06381E+03  6.256E-01  1.000E+01  3.500E-02  1.209E+00
   1    6    8     5     1    1.0432E+01  2.2686E-01   1.0205E+01  0.000E+00  0.000E+00  0.000E+00  1.05868E+03  6.790E-01  1.542E+01  6.166E-02  1.226E+00
   1    7    7     5     2    1.0205E+01  2.7894E-01   9.9265E+00  0.000E+00  0.000E+00  0.000E+00  1.05417E+03  6.732E-01  1.519E+01  7.594E-02  1.224E+00
   1    8    7     5     3    9.9265E+00  1.9221E-01   9.7343E+00  0.000E+00  0.000E+00  0.000E+00  1.04992E+03  6.676E-01  1.497E+01  5.241E-02  1.223E+00
   1    8    6     5     4    9.7343E+00  1.3577E-01   9.5985E+00  0.000E+00  0.000E+00  0.000E+00  1.04691E+03  6.637E-01  1.482E+01  3.706E-02  1.221E+00
   1    9    6     6     1    5.8650E+01  3.0201E-01   5.8348E+01  0.000E+00  0.000E+00  0.000E+00  1.04476E+03  2.034E+00  1.200E+01  6.000E-02  1.678E+00
   1   10    7     6     2    5.8348E+01  3.0164E-01   5.8047E+01  0.000E+00  0.000E+00  0.000E+00  1.04021E+03  2.027E+00  1.200E+01  6.000E-02  1.676E+00
   1   11    7     6     3    5.8047E+01  3.0126E-01   5.7745E+01  0.000E+00  0.000E+00  0.000E+00  1.03566E+03  2.021E+00  1.200E+01  6.000E-02  1.674E+00
   1   12    7     6     4    5.7745E+01  3.0088E-01   5.7445E+01  0.000E+00  0.000E+00  0.000E+00  1.03111E+03  2.015E+00  1.200E+01  6.000E-02  1.672E+00
   1   13    7     6     5    5.7445E+01  1.9557E-02   5.7425E+01  0.000E+00  0.000E+00  0.000E+00  1.02792E+03  2.011E+00  1.200E+01  2.400E-02  2.716E-01
   1   14    9     7     1    1.5000E+02  1.3350E+00   1.4866E+02  0.000E+00  0.000E+00  0.000E+00  1.03987E+03  2.288E+00  5.529E+01  5.593E-01  7.957E-01
   1   13    8     7     2    1.4866E+02  1.8309E+00   1.4683E+02  0.000E+00  0.000E+00  0.000E+00  1.03478E+03  2.279E+00  5.526E+01  6.148E-01  9.927E-01
   1   13    7     7     3    1.4683E+02  1.4433E+00   1.4539E+02  0.000E+00  0.000E+00  0.000E+00  1.02969E+03  2.271E+00  5.522E+01  5.585E-01  8.615E-01
   1   13    6     8     1    2.0282E+02  1.0334E+00   2.0178E+02  0.000E+00  0.000E+00  0.000E+00  1.02503E+03  3.151E+00  4.569E+01  4.656E-01  7.398E-01
   1   13    5     8     2    2.0178E+02  2.2869E-01   2.0155E+02  0.000E+00  0.000E+00  0.000E+00  1.01877E+03  3.148E+00  4.564E+01  4.651E-01  1.639E-01
   1   13    4     8     3    2.0155E+02 -2.0703E+00   2.0362E+02  0.000E+00  0.000E+00  0.000E+00  1.01253E+03  3.153E+00  4.572E+01  4.659E+00 -1.481E-01
   1   13    3     8     4    2.0362E+02 -3.2634E+00   2.0689E+02  0.000E+00  0.000E+00  0.000E+00  1.00629E+03  3.168E+00  4.594E+01  4.682E+00 -2.324E-01
   1   13    2     8     5    2.0689E+02 -2.0910E+00   2.0898E+02  0.000E+00  0.000E+00  0.000E+00  1.00006E+03  3.184E+00  4.617E+01  4.704E+00 -1.482E-01
   1   13    1     8     6    2.0898E+02 -1.6691E+00   2.1065E+02  0.000E+00  0.000E+00  0.000E+00  9.95070E+02  3.195E+00  4.632E+01  2.832E+00 -1.964E-01
   1    8    6     9     1    0.0000E+00  0.0000E+00   0.0000E+00  0.000E+00  0.000E+00  0.000E+00  1.07875E+03  0.000E+00  4.000E+00  0.000E+00  1.000E+00
   1    8    5     9     2    0.0000E+00  0.0000E+00   0.0000E+00  0.000E+00  0.000E+00  0.000E+00  1.07825E+03  0.000E+00  4.000E+00  0.000E+00  1.000E+00





UNSATURATED ZONE PACKAGE VOLUMETRIC BUDGET FOR  TIME STEP    30 STRESS PERIOD    3
  ------------------------------------------------------------------------------



     CUMULATIVE VOLUMES      L**3       RATES FOR THIS TIME STEP      L**3/T
     ------------------                 ------------------------

           IN:                                      IN:
           ---                                      ---
        INFILTRATION =     4531073.7455          INFILTRATION =           0.8475

          OUT:                                     OUT:
          ----                                     ----
              UZF ET =     3944985.5897                UZF ET =           0.7500
        UZF RECHARGE =       73224.0000          UZF RECHARGE =       0.0000E+00

            IN - OUT =      512864.1558              IN - OUT =       9.7500E-02

          STORAGE:                                 STORAGE:
          --------                                 --------
      STORAGE CHANGE =      512864.1946        STORAGE CHANGE =       9.7500E-02

 PERCENT DISCREPANCY IS DIFFERENCE BETWEEN IN-OUT MINUS CHANGE IN STORAGE
 DIVIDED BY THE AVERAGE OF IN AND OUT TIMES 100

 PERCENT DISCREPANCY =          -0.00     PERCENT DISCREPANCY =           0.00






1
  VOLUMETRIC BUDGET FOR AGRICULTURAL FIELDS AT  END OF TIME STEP   30, STRESS PERIOD   3
  ------------------------------------------------------------------------------

     CUMULATIVE VOLUMES      L**3       RATES FOR THIS TIME STEP      L**3/T
     ------------------                 ------------------------

           IN:                                      IN:
           ---                                      ---
           AG WELLS      =           0.0000             AG WELLS      =           0.0000
      DIVERSION SEGMENTS =           0.0000        DIVERSION SEGMENTS =           0.0000
           GW IRRIGATION =           0.0000             GW IRRIGATION =           0.0000
           SW IRRIGATION =           0.0000             SW IRRIGATION =           0.0000
        SYSTEM LOSSES GW =           0.0000          SYSTEM LOSSES GW =           0.0000
        SYSTEM LOSSES SW =           0.0000          SYSTEM LOSSES SW =           0.0000

                TOTAL IN =           0.0000                  TOTAL IN =           0.0000

          OUT:                                     OUT:
          ----                                     ----
           AG WELLS      =           0.0000             AG WELLS      =           0.0000
      DIVERSION SEGMENTS =           0.0000        DIVERSION SEGMENTS =           0.0000
           GW IRRIGATION =           0.0000             GW IRRIGATION =           0.0000
           SW IRRIGATION =           0.0000             SW IRRIGATION =           0.0000
        SYSTEM LOSSES GW =           0.0000          SYSTEM LOSSES GW =           0.0000
        SYSTEM LOSSES SW =           0.0000          SYSTEM LOSSES SW =           0.0000

               TOTAL OUT =           0.0000                 TOTAL OUT =           0.0000

                IN - OUT =           0.0000                  IN - OUT =           0.0000

     PERCENT DISCREPANCY =           0.00         PERCENT DISCREPANCY =           0.00



1
  VOLUMETRIC BUDGET FOR ENTIRE MODEL AT END OF TIME STEP   30, STRESS PERIOD   3
  ------------------------------------------------------------------------------

     CUMULATIVE VOLUMES      L**3       RATES FOR THIS TIME STEP      L**3/T
     ------------------                 ------------------------

           IN:                                      IN:
           ---                                      ---
             STORAGE     =     3122516.0000               STORAGE     =           0.4872
       CONSTANT HEAD     =           0.0000         CONSTANT HEAD     =           0.0000
     HEAD DEP BOUNDS     =     1527280.1250       HEAD DEP BOUNDS     =           0.2857
      STREAM LEAKAGE     =    61979672.0000        STREAM LEAKAGE     =          12.8226
        UZF RECHARGE     =       73223.9531          UZF RECHARGE     =           0.0000
               GW ET     =           0.0000                 GW ET     =           0.0000
     SURFACE LEAKAGE     =           0.0000       SURFACE LEAKAGE     =           0.0000
           AG WELLS      =           0.0000             AG WELLS      =           0.0000

                TOTAL IN =    66702692.0000                  TOTAL IN =          13.5955

          OUT:                                     OUT:
          ----                                     ----
             STORAGE     =     9107252.0000               STORAGE     =           4.2117
       CONSTANT HEAD     =           0.0000         CONSTANT HEAD     =           0.0000
     HEAD DEP BOUNDS     =     1544993.8750       HEAD DEP BOUNDS     =           0.2910
      STREAM LEAKAGE     =    56052144.0000        STREAM LEAKAGE     =           9.0938
        UZF RECHARGE     =           0.0000          UZF RECHARGE     =           0.0000
               GW ET     =           0.0000                 GW ET     =           0.0000
     SURFACE LEAKAGE     =           0.0000       SURFACE LEAKAGE     =           0.0000
           AG WELLS      =           0.0000             AG WELLS      =           0.0000

               TOTAL OUT =    66704392.0000                 TOTAL OUT =          13.5965

                IN - OUT =       -1700.0000                  IN - OUT =      -1.0576E-03

     PERCENT DISCREPANCY =          -0.00         PERCENT DISCREPANCY =          -0.01






         TIME SUMMARY AT END OF TIME STEP   30 IN STRESS PERIOD    3
                    SECONDS     MINUTES      HOURS       DAYS        YEARS
                    -----------------------------------------------------------
   TIME STEP LENGTH  87667.      1461.1      24.352      1.0147     2.77799E-03
 STRESS PERIOD TIME 2.63000E+06  43833.      730.56      30.440     8.33397E-02
         TOTAL TIME 5.34640E+06  89107.      1485.1      61.880     0.16942    
1
1
                            STRESS PERIOD NO.    4, LENGTH =   2630000.    
                            -----------------------------------------------

                              NUMBER OF TIME STEPS =    30

                               MULTIPLIER FOR DELT =     1.000

                            INITIAL TIME STEP SIZE =   87666.66    

 REUSING NON-PARAMETER GHB CELLS FROM LAST STRESS PERIOD

      2 GHB CELLS

 REUSING STREAM SEGMENT DATA FROM LAST STRESS PERIOD



            AREAL INFILTRATION RATE
 READING ON UNIT   19 WITH FORMAT: (FREE)              

            1           2           3           4           5           6           7           8           9          10
 ........................................................................................................................
   1   1.0000E-10  2.0000E-10   0.000       0.000       0.000       0.000       0.000       0.000       0.000       0.000    
   2   2.0000E-10  1.0000E-10  2.0000E-10   0.000       0.000      8.0000E-10  8.0000E-10  5.0000E-10   0.000       0.000    
   3    0.000      5.0000E-10  1.0000E-10  1.0000E-10  8.0000E-10  8.0000E-10  5.0000E-10  5.0000E-10   0.000       0.000    
   4   8.0000E-10  5.0000E-10  1.0000E-10  1.0000E-10  1.0000E-10  1.0000E-10  1.0000E-10  1.0000E-10  2.0000E-10   0.000    
   5   8.0000E-10  5.0000E-10  1.0000E-10  1.0000E-10  1.0000E-10  1.0000E-10  1.0000E-10  1.0000E-10  1.0000E-10  1.0000E-10
   6   8.0000E-10  5.0000E-10  5.0000E-10  2.0000E-10  2.0000E-10  1.0000E-10  1.0000E-10  1.0000E-10  1.0000E-10  5.0000E-10
   7   8.0000E-10  5.0000E-10  5.0000E-10  2.0000E-10  2.0000E-10  1.0000E-10  1.0000E-10  2.0000E-10  2.0000E-10   0.000    
   8    0.000      5.0000E-10  5.0000E-10  2.0000E-10  2.0000E-10  1.0000E-10  1.0000E-10  2.0000E-10  5.0000E-10   0.000    
   9    0.000      5.0000E-10  5.0000E-10  2.0000E-10  2.0000E-10  1.0000E-10  1.0000E-10  2.0000E-10  5.0000E-10   0.000    
  10    0.000      5.0000E-10  5.0000E-10  2.0000E-10  2.0000E-10  1.0000E-10  1.0000E-10  2.0000E-10  5.0000E-10  8.0000E-10
  11    0.000      1.0000E-10  1.0000E-10  1.0000E-10  1.0000E-10  1.0000E-10  1.0000E-10  2.0000E-10  5.0000E-10   0.000    
  12   1.0000E-10  1.0000E-10  1.0000E-10  1.0000E-10  1.0000E-10  1.0000E-10  1.0000E-10  1.0000E-10  2.0000E-10   0.000    
  13   1.0000E-10  1.0000E-10  2.0000E-10  2.0000E-10  2.0000E-10  2.0000E-10  2.0000E-10  1.0000E-10  1.0000E-10   0.000    
  14    0.000      2.0000E-10  5.0000E-10  5.0000E-10  5.0000E-10  5.0000E-10  5.0000E-10  2.0000E-10  1.0000E-10   0.000    
  15    0.000       0.000      8.0000E-10  8.0000E-10  8.0000E-10  8.0000E-10   0.000       0.000       0.000       0.000    

                  ET RATE =  5.000000E-10

 USING ET EXTINCTION DEPTH FROM PREVIOUS STRESS PERIOD. CURRENT PERIOD IS:       4

 USING EXTINCTION WATER CONTENT FROM PREVIOUS STRESS PERIOD. CURRENT PERIOD IS:       4

 USING AIR ENTRY PRESSURE FROM PREVIOUS STRESS PERIOD. CURRENT PERIOD IS:       4

 USING ROOT PRESSURE HEAD FROM PREVIOUS STRESS PERIOD. CURRENT PERIOD IS:       4

 USING ROOT ACTIVITY FROM PREVIOUS STRESS PERIOD. CURRENT PERIOD IS:       4

 PROCESSING AG STRESS PERIOD DATA

 READING AG STRESS PERIOD DATA

 READING IRRIGATION SEGMENT

 READING IRRIGATION WELL

 READING SUPPLEMENTAL WELL

 END PROCESSING AG STRESS PERIOD DATA OPTIONS
 
 SOLVING FOR HEAD 
                                                   Max.-Head-Change                         Max.-Flux-Residual
  Residual-Control   Outer-Iter.   Inner-Iter.     Column Row Layer    Maximum-Head-Change  Column Row Layer    Maximum-Flux-Residual          L2-NORM 
          0                 1           2             2   13     1       0.9722706591E-02       4   13    1         0.5574255494E+00      0.1192908535E+01
          0                 2           2             4   13     1      -0.9333061353E-03       4   13    1        -0.5513982280E-01      0.1166980764E+00
          0                 3           1             4   13     1       0.6258911565E-04       4   13    1         0.3801787017E-02      0.7929388182E-02

    ------------------------------------------------
       NWT REQUIRED            3 OUTER ITERATIONS 
       AND A TOTAL OF          5 INNER ITERATIONS.
    ------------------------------------------------

 NO OUTPUT CONTROL FOR STRESS PERIOD    4   TIME STEP    1
 
 SOLVING FOR HEAD 
                                                   Max.-Head-Change                         Max.-Flux-Residual
  Residual-Control   Outer-Iter.   Inner-Iter.     Column Row Layer    Maximum-Head-Change  Column Row Layer    Maximum-Flux-Residual          L2-NORM 
          0                 1           2             2   13     1       0.8971061845E-02       2   13    1         0.5067236770E+00      0.1125586528E+01
          0                 2           2             4   13     1      -0.8448244803E-03       4   13    1        -0.4987501123E-01      0.1102710026E+00
          0                 3           1             4   13     1       0.5665902957E-04       4   13    1         0.3438980787E-02      0.7503697694E-02

    ------------------------------------------------
       NWT REQUIRED            3 OUTER ITERATIONS 
       AND A TOTAL OF          5 INNER ITERATIONS.
    ------------------------------------------------

 NO OUTPUT CONTROL FOR STRESS PERIOD    4   TIME STEP    2
 
 SOLVING FOR HEAD 
                                                   Max.-Head-Change                         Max.-Flux-Residual
  Residual-Control   Outer-Iter.   Inner-Iter.     Column Row Layer    Maximum-Head-Change  Column Row Layer    Maximum-Flux-Residual          L2-NORM 
          0                 1           2             2   13     1       0.8278300461E-02       2   13    1         0.4675348665E+00      0.1065423577E+01
          0                 2           2             2   13     1      -0.7684626531E-03       4   13    1        -0.4514450367E-01      0.1044548324E+00
          0                 3           1             4   13     1       0.5130001029E-04       4   13    1         0.3111364638E-02      0.7117577445E-02

    ------------------------------------------------
       NWT REQUIRED            3 OUTER ITERATIONS 
       AND A TOTAL OF          5 INNER ITERATIONS.
    ------------------------------------------------

 NO OUTPUT CONTROL FOR STRESS PERIOD    4   TIME STEP    3
 
 SOLVING FOR HEAD 
                                                   Max.-Head-Change                         Max.-Flux-Residual
  Residual-Control   Outer-Iter.   Inner-Iter.     Column Row Layer    Maximum-Head-Change  Column Row Layer    Maximum-Flux-Residual          L2-NORM 
          0                 1           2             2   13     1       0.7639674698E-02       2   13    1         0.4314096696E+00      0.1011718689E+01
          0                 2           2             2   13     1      -0.7094780376E-03       2   13    1        -0.4118208294E-01      0.9932724014E-01
          0                 3           1             4   13     1       0.4655574285E-04       4   13    1         0.2822035290E-02      0.6780229549E-02

    ------------------------------------------------
       NWT REQUIRED            3 OUTER ITERATIONS 
       AND A TOTAL OF          5 INNER ITERATIONS.
    ------------------------------------------------

 NO OUTPUT CONTROL FOR STRESS PERIOD    4   TIME STEP    4
 
 SOLVING FOR HEAD 
                                                   Max.-Head-Change                         Max.-Flux-Residual
  Residual-Control   Outer-Iter.   Inner-Iter.     Column Row Layer    Maximum-Head-Change  Column Row Layer    Maximum-Flux-Residual          L2-NORM 
          0                 1           2             2   13     1       0.7051134970E-02       2   13    1         0.3981196161E+00      0.9638256189E+00
          0                 2           2             2   13     1      -0.6550642219E-03       2   13    1        -0.3801806407E-01      0.9471600239E-01
          0                 3           1             2    2     1       0.4352505581E-04       4   13    1         0.2555252590E-02      0.6476046340E-02

    ------------------------------------------------
       NWT REQUIRED            3 OUTER ITERATIONS 
       AND A TOTAL OF          5 INNER ITERATIONS.
    ------------------------------------------------

 NO OUTPUT CONTROL FOR STRESS PERIOD    4   TIME STEP    5
 
 SOLVING FOR HEAD 
                                                   Max.-Head-Change                         Max.-Flux-Residual
  Residual-Control   Outer-Iter.   Inner-Iter.     Column Row Layer    Maximum-Head-Change  Column Row Layer    Maximum-Flux-Residual          L2-NORM 
          0                 1           2             2    2     1       0.6530578794E-02       2   13    1         0.3674340446E+00      0.9211195136E+00
          0                 2           2             2    2     1      -0.6352488475E-03       2   13    1        -0.3510025729E-01      0.9062757206E-01
          0                 3           1             2    2     1       0.4325807581E-04       2    2    1         0.2386429274E-02      0.6206163982E-02

    ------------------------------------------------
       NWT REQUIRED            3 OUTER ITERATIONS 
       AND A TOTAL OF          5 INNER ITERATIONS.
    ------------------------------------------------

 NO OUTPUT CONTROL FOR STRESS PERIOD    4   TIME STEP    6
 
 SOLVING FOR HEAD 
                                                   Max.-Head-Change                         Max.-Flux-Residual
  Residual-Control   Outer-Iter.   Inner-Iter.     Column Row Layer    Maximum-Head-Change  Column Row Layer    Maximum-Flux-Residual          L2-NORM 
          0                 1           2             2    2     1       0.6490744694E-02       2   13    1         0.3391565589E+00      0.8830872342E+00
          0                 2           2             2    2     1      -0.6313740483E-03       2    2    1        -0.3388241289E-01      0.8698754178E-01
          0                 3           1             2    2     1       0.4299421683E-04       2    2    1         0.2371768941E-02      0.5966535889E-02

    ------------------------------------------------
       NWT REQUIRED            3 OUTER ITERATIONS 
       AND A TOTAL OF          5 INNER ITERATIONS.
    ------------------------------------------------

 NO OUTPUT CONTROL FOR STRESS PERIOD    4   TIME STEP    7
 
 SOLVING FOR HEAD 
                                                   Max.-Head-Change                         Max.-Flux-Residual
  Residual-Control   Outer-Iter.   Inner-Iter.     Column Row Layer    Maximum-Head-Change  Column Row Layer    Maximum-Flux-Residual          L2-NORM 
          0                 1           2             2    2     1       0.6451547572E-02       2    2    1         0.3367622684E+00      0.8492150641E+00
          0                 2           2             2    2     1      -0.6275612092E-03       2    2    1        -0.3367632998E-01      0.8374820532E-01
          0                 3           1             2    2     1       0.4273457702E-04       2    2    1         0.2357343149E-02      0.5753731505E-02

    ------------------------------------------------
       NWT REQUIRED            3 OUTER ITERATIONS 
       AND A TOTAL OF          5 INNER ITERATIONS.
    ------------------------------------------------

 NO OUTPUT CONTROL FOR STRESS PERIOD    4   TIME STEP    8
 
 SOLVING FOR HEAD 
                                                   Max.-Head-Change                         Max.-Flux-Residual
  Residual-Control   Outer-Iter.   Inner-Iter.     Column Row Layer    Maximum-Head-Change  Column Row Layer    Maximum-Flux-Residual          L2-NORM 
          0                 1           2             2    2     1       0.6412804297E-02       2    2    1         0.3347254048E+00      0.8190625492E+00
          0                 2           2             2    2     1      -0.6237925182E-03       2    2    1        -0.3347264186E-01      0.8086663199E-01
          0                 3           1             2    2     1       0.4247794320E-04       2    2    1         0.2343084980E-02      0.5564618212E-02

    ------------------------------------------------
       NWT REQUIRED            3 OUTER ITERATIONS 
       AND A TOTAL OF          5 INNER ITERATIONS.
    ------------------------------------------------

 NO OUTPUT CONTROL FOR STRESS PERIOD    4   TIME STEP    9
 
 SOLVING FOR HEAD 
                                                   Max.-Head-Change                         Max.-Flux-Residual
  Residual-Control   Outer-Iter.   Inner-Iter.     Column Row Layer    Maximum-Head-Change  Column Row Layer    Maximum-Flux-Residual          L2-NORM 
          0                 1           2             2    2     1       0.6374594176E-02       2    2    1         0.3327166124E+00      0.7921948598E+00
          0                 2           2             2    2     1      -0.6200756891E-03       2    2    1        -0.3327176089E-01      0.7829830130E-01
          0                 3           1             2    2     1       0.4222484078E-04       2    2    1         0.2329023318E-02      0.5395899446E-02

    ------------------------------------------------
       NWT REQUIRED            3 OUTER ITERATIONS 
       AND A TOTAL OF          5 INNER ITERATIONS.
    ------------------------------------------------

 NO OUTPUT CONTROL FOR STRESS PERIOD    4   TIME STEP   10
 
 SOLVING FOR HEAD 
                                                   Max.-Head-Change                         Max.-Flux-Residual
  Residual-Control   Outer-Iter.   Inner-Iter.     Column Row Layer    Maximum-Head-Change  Column Row Layer    Maximum-Flux-Residual          L2-NORM 
          0                 1           2             2    2     1       0.6336821867E-02       2    2    1         0.3307309230E+00      0.7682456956E+00
          0                 2           2             2    2     1      -0.6164014483E-03       2    2    1        -0.3307319026E-01      0.7600930606E-01
          0                 3           1             2    2     1       0.4197463926E-04       2    2    1         0.2315123403E-02      0.5245474927E-02

    ------------------------------------------------
       NWT REQUIRED            3 OUTER ITERATIONS 
       AND A TOTAL OF          5 INNER ITERATIONS.
    ------------------------------------------------

 NO OUTPUT CONTROL FOR STRESS PERIOD    4   TIME STEP   11
 
 SOLVING FOR HEAD 
                                                   Max.-Head-Change                         Max.-Flux-Residual
  Residual-Control   Outer-Iter.   Inner-Iter.     Column Row Layer    Maximum-Head-Change  Column Row Layer    Maximum-Flux-Residual          L2-NORM 
          0                 1           2             2    2     1       0.6299566920E-02       2    2    1         0.3287724739E+00      0.7468807676E+00
          0                 2           2             2    2     1      -0.6127775330E-03       2    2    1        -0.3287734372E-01      0.7396780827E-01
          0                 3           1             2    2     1       0.4172786406E-04       2    2    1         0.2301414147E-02      0.5111291030E-02

    ------------------------------------------------
       NWT REQUIRED            3 OUTER ITERATIONS 
       AND A TOTAL OF          5 INNER ITERATIONS.
    ------------------------------------------------

 NO OUTPUT CONTROL FOR STRESS PERIOD    4   TIME STEP   12
 
 SOLVING FOR HEAD 
                                                   Max.-Head-Change                         Max.-Flux-Residual
  Residual-Control   Outer-Iter.   Inner-Iter.     Column Row Layer    Maximum-Head-Change  Column Row Layer    Maximum-Flux-Residual          L2-NORM 
          0                 1           2             2    2     1       0.6262821188E-02       2    2    1         0.3268408495E+00      0.7278023089E+00
          0                 2           2             2    2     1      -0.6092031506E-03       2    2    1        -0.3268417964E-01      0.7214403746E-01
          0                 3           1             2    2     1       0.4148446241E-04       2    2    1         0.2287892682E-02      0.4991419050E-02

    ------------------------------------------------
       NWT REQUIRED            3 OUTER ITERATIONS 
       AND A TOTAL OF          5 INNER ITERATIONS.
    ------------------------------------------------

 NO OUTPUT CONTROL FOR STRESS PERIOD    4   TIME STEP   13
 
 SOLVING FOR HEAD 
                                                   Max.-Head-Change                         Max.-Flux-Residual
  Residual-Control   Outer-Iter.   Inner-Iter.     Column Row Layer    Maximum-Head-Change  Column Row Layer    Maximum-Flux-Residual          L2-NORM 
          0                 1           2             2    2     1       0.6226576539E-02       2    2    1         0.3249356272E+00      0.7107304552E+00
          0                 2           2             2    2     1      -0.6056775107E-03       2    2    1        -0.3249365586E-01      0.7051180458E-01
          0                 3           1             2    2     1       0.4124437939E-04       2    2    1         0.2274556003E-02      0.4884020470E-02

    ------------------------------------------------
       NWT REQUIRED            3 OUTER ITERATIONS 
       AND A TOTAL OF          5 INNER ITERATIONS.
    ------------------------------------------------

 NO OUTPUT CONTROL FOR STRESS PERIOD    4   TIME STEP   14
 
 SOLVING FOR HEAD 
                                                   Max.-Head-Change                         Max.-Flux-Residual
  Residual-Control   Outer-Iter.   Inner-Iter.     Column Row Layer    Maximum-Head-Change  Column Row Layer    Maximum-Flux-Residual          L2-NORM 
          0                 1           2             2    2     1       0.6190738554E-02       2    2    1         0.3230518444E+00      0.6954327544E+00
          0                 2           2             2    2     1      -0.6021914291E-03       2    2    1        -0.3230527603E-01      0.6904741996E-01
          0                 3           1             2    2     1       0.4100699065E-04       2    2    1         0.2261369448E-02      0.4787166760E-02

    ------------------------------------------------
       NWT REQUIRED            3 OUTER ITERATIONS 
       AND A TOTAL OF          5 INNER ITERATIONS.
    ------------------------------------------------

 NO OUTPUT CONTROL FOR STRESS PERIOD    4   TIME STEP   15
 
 SOLVING FOR HEAD 
                                                   Max.-Head-Change                         Max.-Flux-Residual
  Residual-Control   Outer-Iter.   Inner-Iter.     Column Row Layer    Maximum-Head-Change  Column Row Layer    Maximum-Flux-Residual          L2-NORM 
          0                 1           2             2    2     1       0.6155387396E-02       2    2    1         0.3211936876E+00      0.6816965238E+00
          0                 2           2             2    2     1      -0.5987527019E-03       2    2    1        -0.3211945882E-01      0.6773269871E-01
          0                 3           1             2    2     1       0.4077282588E-04       2    2    1         0.2248362238E-02      0.4701235123E-02

    ------------------------------------------------
       NWT REQUIRED            3 OUTER ITERATIONS 
       AND A TOTAL OF          5 INNER ITERATIONS.
    ------------------------------------------------

 NO OUTPUT CONTROL FOR STRESS PERIOD    4   TIME STEP   16
 
 SOLVING FOR HEAD 
                                                   Max.-Head-Change                         Max.-Flux-Residual
  Residual-Control   Outer-Iter.   Inner-Iter.     Column Row Layer    Maximum-Head-Change  Column Row Layer    Maximum-Flux-Residual          L2-NORM 
          0                 1           2             2    2     1       0.6120514978E-02       2    2    1         0.3193607723E+00      0.6693406811E+00
          0                 2           2             2    2     1      -0.5953605448E-03       2    2    1        -0.3193616583E-01      0.6654869535E-01
          0                 3           1             2    2     1       0.4054183324E-04       2    2    1         0.2235531750E-02      0.4622964601E-02

    ------------------------------------------------
       NWT REQUIRED            3 OUTER ITERATIONS 
       AND A TOTAL OF          5 INNER ITERATIONS.
    ------------------------------------------------

 NO OUTPUT CONTROL FOR STRESS PERIOD    4   TIME STEP   17
 
 SOLVING FOR HEAD 
                                                   Max.-Head-Change                         Max.-Flux-Residual
  Residual-Control   Outer-Iter.   Inner-Iter.     Column Row Layer    Maximum-Head-Change  Column Row Layer    Maximum-Flux-Residual          L2-NORM 
          0                 1           2             2    2     1       0.6086114131E-02       2    2    1         0.3175526791E+00      0.6581834074E+00
          0                 2           2             2    2     1      -0.5920142585E-03       2    2    1        -0.3175535508E-01      0.6547861353E-01
          0                 3           1             2    2     1       0.4031396327E-04       2    2    1         0.2222874988E-02      0.4552374955E-02

    ------------------------------------------------
       NWT REQUIRED            3 OUTER ITERATIONS 
       AND A TOTAL OF          5 INNER ITERATIONS.
    ------------------------------------------------

 NO OUTPUT CONTROL FOR STRESS PERIOD    4   TIME STEP   18
 
 SOLVING FOR HEAD 
                                                   Max.-Head-Change                         Max.-Flux-Residual
  Residual-Control   Outer-Iter.   Inner-Iter.     Column Row Layer    Maximum-Head-Change  Column Row Layer    Maximum-Flux-Residual          L2-NORM 
          0                 1           2             2    2     1       0.6052090883E-02       2    2    1         0.3157644944E+00      0.6480871972E+00
          0                 2           2             2    2     1      -0.5887047028E-03       2    2    1        -0.3157653520E-01      0.6450909565E-01
          0                 3           1             2    2     1       0.4008859493E-04       2    2    1         0.2210357589E-02      0.4488342151E-02

    ------------------------------------------------
       NWT REQUIRED            3 OUTER ITERATIONS 
       AND A TOTAL OF          5 INNER ITERATIONS.
    ------------------------------------------------

 NO OUTPUT CONTROL FOR STRESS PERIOD    4   TIME STEP   19
 
 SOLVING FOR HEAD 
                                                   Max.-Head-Change                         Max.-Flux-Residual
  Residual-Control   Outer-Iter.   Inner-Iter.     Column Row Layer    Maximum-Head-Change  Column Row Layer    Maximum-Flux-Residual          L2-NORM 
          0                 1           2             2    2     1       0.6018525482E-02       2    2    1         0.3140004295E+00      0.6389240942E+00
          0                 2           2             2    2     1      -0.5854396836E-03       2    2    1        -0.3140012732E-01      0.6362714457E-01
          0                 3           1             2    2     1       0.3986625980E-04       2    2    1         0.2198009063E-02      0.4429577986E-02

    ------------------------------------------------
       NWT REQUIRED            3 OUTER ITERATIONS 
       AND A TOTAL OF          5 INNER ITERATIONS.
    ------------------------------------------------

 NO OUTPUT CONTROL FOR STRESS PERIOD    4   TIME STEP   20
 
 SOLVING FOR HEAD 
                                                   Max.-Head-Change                         Max.-Flux-Residual
  Residual-Control   Outer-Iter.   Inner-Iter.     Column Row Layer    Maximum-Head-Change  Column Row Layer    Maximum-Flux-Residual          L2-NORM 
          0                 1           2             2    2     1       0.5985410749E-02       2    2    1         0.3122601035E+00      0.6305800237E+00
          0                 2           2             2    2     1      -0.5822185030E-03       2    2    1        -0.3122609338E-01      0.6282363216E-01
          0                 3           1             2    2     1       0.3964690959E-04       2    2    1         0.2185826703E-02      0.4376402763E-02

    ------------------------------------------------
       NWT REQUIRED            3 OUTER ITERATIONS 
       AND A TOTAL OF          5 INNER ITERATIONS.
    ------------------------------------------------

 NO OUTPUT CONTROL FOR STRESS PERIOD    4   TIME STEP   21
 
 SOLVING FOR HEAD 
                                                   Max.-Head-Change                         Max.-Flux-Residual
  Residual-Control   Outer-Iter.   Inner-Iter.     Column Row Layer    Maximum-Head-Change  Column Row Layer    Maximum-Flux-Residual          L2-NORM 
          0                 1           2             2    2     1       0.5952739973E-02       2    2    1         0.3105431442E+00      0.6229689428E+00
          0                 2           2             2    2     1      -0.5790405076E-03       2    2    1        -0.3105439614E-01      0.6208896390E-01
          0                 3           1             2    2     1       0.3943050005E-04       2    2    1         0.2173807899E-02      0.4326407697E-02

    ------------------------------------------------
       NWT REQUIRED            3 OUTER ITERATIONS 
       AND A TOTAL OF          5 INNER ITERATIONS.
    ------------------------------------------------

 NO OUTPUT CONTROL FOR STRESS PERIOD    4   TIME STEP   22
 
 SOLVING FOR HEAD 
                                                   Max.-Head-Change                         Max.-Flux-Residual
  Residual-Control   Outer-Iter.   Inner-Iter.     Column Row Layer    Maximum-Head-Change  Column Row Layer    Maximum-Flux-Residual          L2-NORM 
          0                 1           2             2    2     1       0.5920419299E-02       2    2    1         0.3088446607E+00      0.6159849811E+00
          0                 2           2             2    2     1      -0.5758965676E-03       2    2    1        -0.3088454650E-01      0.6141536588E-01
          0                 3           1             2    2     1       0.3921640919E-04       2    2    1         0.2161918418E-02      0.4282366592E-02

    ------------------------------------------------
       NWT REQUIRED            3 OUTER ITERATIONS 
       AND A TOTAL OF          5 INNER ITERATIONS.
    ------------------------------------------------

 NO OUTPUT CONTROL FOR STRESS PERIOD    4   TIME STEP   23
 
 SOLVING FOR HEAD 
                                                   Max.-Head-Change                         Max.-Flux-Residual
  Residual-Control   Outer-Iter.   Inner-Iter.     Column Row Layer    Maximum-Head-Change  Column Row Layer    Maximum-Flux-Residual          L2-NORM 
          0                 1           2             2    2     1       0.5888529809E-02       2    2    1         0.3071688723E+00      0.6095689376E+00
          0                 2           2             2    2     1      -0.5727945709E-03       2    2    1        -0.3071696638E-01      0.6079455114E-01
          0                 3           1             2    2     1       0.3900517546E-04       2    2    1         0.2150187841E-02      0.4240600404E-02

    ------------------------------------------------
       NWT REQUIRED            3 OUTER ITERATIONS 
       AND A TOTAL OF          5 INNER ITERATIONS.
    ------------------------------------------------

 NO OUTPUT CONTROL FOR STRESS PERIOD    4   TIME STEP   24
 
 SOLVING FOR HEAD 
                                                   Max.-Head-Change                         Max.-Flux-Residual
  Residual-Control   Outer-Iter.   Inner-Iter.     Column Row Layer    Maximum-Head-Change  Column Row Layer    Maximum-Flux-Residual          L2-NORM 
          0                 1           2             2    2     1       0.5857064406E-02       2    2    1         0.3055154403E+00      0.6036483312E+00
          0                 2           2             2    2     1      -0.5697338265E-03       2    2    1        -0.3055162196E-01      0.6022065514E-01
          0                 3           1             2    2     1       0.3879674985E-04       2    2    1         0.2138613727E-02      0.4202236599E-02

    ------------------------------------------------
       NWT REQUIRED            3 OUTER ITERATIONS 
       AND A TOTAL OF          5 INNER ITERATIONS.
    ------------------------------------------------

 NO OUTPUT CONTROL FOR STRESS PERIOD    4   TIME STEP   25
 
 SOLVING FOR HEAD 
                                                   Max.-Head-Change                         Max.-Flux-Residual
  Residual-Control   Outer-Iter.   Inner-Iter.     Column Row Layer    Maximum-Head-Change  Column Row Layer    Maximum-Flux-Residual          L2-NORM 
          0                 1           2             2    2     1       0.5826016811E-02       2    2    1         0.3038839966E+00      0.5981780172E+00
          0                 2           2             2    2     1      -0.5667137235E-03       2    2    1        -0.3038847637E-01      0.5968992671E-01
          0                 3           1             2    2     1       0.3859109214E-04       2    2    1         0.2127193536E-02      0.4166718241E-02

    ------------------------------------------------
       NWT REQUIRED            3 OUTER ITERATIONS 
       AND A TOTAL OF          5 INNER ITERATIONS.
    ------------------------------------------------

 NO OUTPUT CONTROL FOR STRESS PERIOD    4   TIME STEP   26
 
 SOLVING FOR HEAD 
                                                   Max.-Head-Change                         Max.-Flux-Residual
  Residual-Control   Outer-Iter.   Inner-Iter.     Column Row Layer    Maximum-Head-Change  Column Row Layer    Maximum-Flux-Residual          L2-NORM 
          0                 1           2             2    2     1       0.5795293960E-02       2    2    1         0.3022696725E+00      0.5930866872E+00
          0                 2           2             2    2     1      -0.5637252105E-03       2    2    1        -0.3022704280E-01      0.5919484204E-01
          0                 3           1             2    2     1       0.3838758578E-04       2    2    1         0.2115893185E-02      0.4133396156E-02

    ------------------------------------------------
       NWT REQUIRED            3 OUTER ITERATIONS 
       AND A TOTAL OF          5 INNER ITERATIONS.
    ------------------------------------------------

 NO OUTPUT CONTROL FOR STRESS PERIOD    4   TIME STEP   27
 
 SOLVING FOR HEAD 
                                                   Max.-Head-Change                         Max.-Flux-Residual
  Residual-Control   Outer-Iter.   Inner-Iter.     Column Row Layer    Maximum-Head-Change  Column Row Layer    Maximum-Flux-Residual          L2-NORM 
          0                 1           2             2    2     1       0.5764977044E-02       2    2    1         0.3006767291E+00      0.5883461591E+00
          0                 2           2             2    2     1      -0.5607761839E-03       2    2    1        -0.3006774729E-01      0.5873281583E-01
          0                 3           1             2    2     1       0.3818676875E-04       2    2    1         0.2104742531E-02      0.4101958269E-02

    ------------------------------------------------
       NWT REQUIRED            3 OUTER ITERATIONS 
       AND A TOTAL OF          5 INNER ITERATIONS.
    ------------------------------------------------

 NO OUTPUT CONTROL FOR STRESS PERIOD    4   TIME STEP   28
 
 SOLVING FOR HEAD 
                                                   Max.-Head-Change                         Max.-Flux-Residual
  Residual-Control   Outer-Iter.   Inner-Iter.     Column Row Layer    Maximum-Head-Change  Column Row Layer    Maximum-Flux-Residual          L2-NORM 
          0                 1           2             2    2     1       0.5735060105E-02       2    2    1         0.2991048331E+00      0.5839165056E+00
          0                 2           2             2    2     1      -0.5578660642E-03       2    2    1        -0.2991055658E-01      0.5830111832E-01
          0                 3           1             2    2     1       0.3798859962E-04       2    2    1         0.2093739157E-02      0.4072782094E-02

    ------------------------------------------------
       NWT REQUIRED            3 OUTER ITERATIONS 
       AND A TOTAL OF          5 INNER ITERATIONS.
    ------------------------------------------------

 NO OUTPUT CONTROL FOR STRESS PERIOD    4   TIME STEP   29
 
 SOLVING FOR HEAD 
                                                   Max.-Head-Change                         Max.-Flux-Residual
  Residual-Control   Outer-Iter.   Inner-Iter.     Column Row Layer    Maximum-Head-Change  Column Row Layer    Maximum-Flux-Residual          L2-NORM 
          0                 1           2             2    2     1       0.4577995966E-02       2    2    1         0.2386111534E+00      0.5559196019E+00
          0                 2           2             2    2     1      -0.4453148114E-03       2    2    1        -0.2386115789E-01      0.5518052966E-01
          0                 3           1             2    2     1       0.3032428173E-04       2    2    1         0.1670281384E-02      0.3825101023E-02

    ------------------------------------------------
       NWT REQUIRED            3 OUTER ITERATIONS 
       AND A TOTAL OF          5 INNER ITERATIONS.
    ------------------------------------------------

 NO OUTPUT CONTROL FOR STRESS PERIOD    4   TIME STEP   30



 STREAM LISTING     PERIOD      4   STEP       30

 LAYER ROW COL. STREAM  RCH.  FLOW INTO     FLOW TO   FLOW OUT OF   OVRLND.     DIRECT     STREAM       STREAM     STREAM     STREAM   STREAMBED  STREAMBED
                SEG.NO.  NO.  STRM. RCH.    AQUIFER    STRM. RCH.    RUNOFF     PRECIP       ET          HEAD       DEPTH      WIDTH   CONDCTNC.   GRADIENT

   1    1    1     1     1    4.6685E+01  3.2585E-01   4.6359E+01  0.000E+00  0.000E+00  0.000E+00  1.09443E+03  1.378E+00  1.654E+01  7.443E-02  1.459E+00
   1    2    2     1     2    4.6359E+01  5.0484E-01   4.5855E+01  0.000E+00  0.000E+00  0.000E+00  1.08943E+03  1.375E+00  1.648E+01  1.154E-01  1.458E+00
   1    3    3     1     3    4.5855E+01  4.3074E-01   4.5424E+01  0.000E+00  0.000E+00  0.000E+00  1.08379E+03  1.372E+00  1.642E+01  9.852E-02  1.457E+00
   1    3    4     1     4    4.5424E+01  3.9680E-01   4.5027E+01  0.000E+00  0.000E+00  0.000E+00  1.07878E+03  1.369E+00  1.636E+01  9.082E-02  1.456E+00
   1    4    5     2     1    4.3027E+01  3.6413E-01   4.2663E+01  0.000E+00  0.000E+00  0.000E+00  1.07360E+03  1.668E+00  1.200E+01  7.800E-02  1.556E+00
   1    5    6     2     2    4.2663E+01  2.7965E-01   4.2383E+01  0.000E+00  0.000E+00  0.000E+00  1.06817E+03  1.661E+00  1.200E+01  6.000E-02  1.554E+00
   1    6    6     2     3    4.2383E+01  2.7926E-01   4.2104E+01  0.000E+00  0.000E+00  0.000E+00  1.06345E+03  1.654E+00  1.200E+01  6.000E-02  1.551E+00
   1    7    6     2     4    4.2104E+01  2.7886E-01   4.1825E+01  0.000E+00  0.000E+00  0.000E+00  1.05872E+03  1.648E+00  1.200E+01  6.000E-02  1.549E+00
   1    8    6     2     5    4.1825E+01  2.7847E-01   4.1547E+01  0.000E+00  0.000E+00  0.000E+00  1.05400E+03  1.641E+00  1.200E+01  6.000E-02  1.547E+00
   1    3    5     3     1    2.0000E+00  2.8252E-01   1.7175E+00  0.000E+00  0.000E+00  0.000E+00  1.07555E+03  1.909E+00  9.636E+00  7.227E-02  1.955E+00
   1    3    6     3     2    1.7175E+00  2.4905E-01   1.4684E+00  0.000E+00  0.000E+00  0.000E+00  1.07264E+03  1.727E+00  8.909E+00  6.682E-02  1.864E+00
   1    3    7     3     3    1.4684E+00  1.9718E-01   1.2712E+00  0.000E+00  0.000E+00  0.000E+00  1.06987E+03  1.555E+00  8.218E+00  5.547E-02  1.777E+00
   1    4    8     3     4    1.2712E+00  2.2567E-01   1.0456E+00  0.000E+00  0.000E+00  0.000E+00  1.06682E+03  1.364E+00  7.455E+00  6.709E-02  1.682E+00
   1    5    8     3     5    1.0456E+00  1.5790E-01   8.8768E-01  0.000E+00  0.000E+00  0.000E+00  1.06362E+03  1.164E+00  6.655E+00  4.991E-02  1.582E+00
   1    6    8     3     6    8.8768E-01  5.5980E-02   8.3170E-01  0.000E+00  0.000E+00  0.000E+00  1.06158E+03  1.036E+00  6.145E+00  1.844E-02  1.518E+00
   1    5   10     4     1    1.0000E+01  9.0919E-02   9.9091E+00  0.000E+00  0.000E+00  0.000E+00  1.07836E+03  6.368E-01  1.000E+01  2.500E-02  1.212E+00
   1    5    9     4     2    9.9091E+00  1.8158E-01   9.7275E+00  0.000E+00  0.000E+00  0.000E+00  1.07154E+03  6.315E-01  1.000E+01  5.000E-02  1.211E+00
   1    6    8     4     3    9.7275E+00  1.2689E-01   9.6006E+00  0.000E+00  0.000E+00  0.000E+00  1.06381E+03  6.256E-01  1.000E+01  3.500E-02  1.209E+00
   1    6    8     5     1    1.0432E+01  2.2686E-01   1.0205E+01  0.000E+00  0.000E+00  0.000E+00  1.05868E+03  6.790E-01  1.542E+01  6.166E-02  1.226E+00
   1    7    7     5     2    1.0205E+01  2.7894E-01   9.9265E+00  0.000E+00  0.000E+00  0.000E+00  1.05417E+03  6.732E-01  1.519E+01  7.594E-02  1.224E+00
   1    8    7     5     3    9.9265E+00  1.9221E-01   9.7343E+00  0.000E+00  0.000E+00  0.000E+00  1.04992E+03  6.676E-01  1.497E+01  5.241E-02  1.223E+00
   1    8    6     5     4    9.7343E+00  1.3577E-01   9.5985E+00  0.000E+00  0.000E+00  0.000E+00  1.04691E+03  6.637E-01  1.482E+01  3.706E-02  1.221E+00
   1    9    6     6     1    5.1145E+01  2.9237E-01   5.0853E+01  0.000E+00  0.000E+00  0.000E+00  1.04460E+03  1.873E+00  1.200E+01  6.000E-02  1.624E+00
   1   10    7     6     2    5.0853E+01  2.9199E-01   5.0561E+01  0.000E+00  0.000E+00  0.000E+00  1.04005E+03  1.866E+00  1.200E+01  6.000E-02  1.622E+00
   1   11    7     6     3    5.0561E+01  2.9160E-01   5.0269E+01  0.000E+00  0.000E+00  0.000E+00  1.03550E+03  1.860E+00  1.200E+01  6.000E-02  1.620E+00
   1   12    7     6     4    5.0269E+01  2.9121E-01   4.9978E+01  0.000E+00  0.000E+00  0.000E+00  1.03094E+03  1.854E+00  1.200E+01  6.000E-02  1.618E+00
   1   13    7     6     5    4.9978E+01  1.5046E-02   4.9963E+01  0.000E+00  0.000E+00  0.000E+00  1.02776E+03  1.850E+00  1.200E+01  2.400E-02  2.090E-01
   1   14    9     7     1    1.5000E+02  1.3355E+00   1.4866E+02  0.000E+00  0.000E+00  0.000E+00  1.03987E+03  2.288E+00  5.529E+01  5.593E-01  7.959E-01
   1   13    8     7     2    1.4866E+02  1.8270E+00   1.4684E+02  0.000E+00  0.000E+00  0.000E+00  1.03478E+03  2.279E+00  5.526E+01  6.148E-01  9.906E-01
   1   13    7     7     3    1.4684E+02  1.4284E+00   1.4541E+02  0.000E+00  0.000E+00  0.000E+00  1.02969E+03  2.271E+00  5.522E+01  5.585E-01  8.526E-01
   1   13    6     8     1    1.9537E+02  9.7131E-01   1.9440E+02  0.000E+00  0.000E+00  0.000E+00  1.02498E+03  3.107E+00  4.506E+01  4.591E-01  7.052E-01
   1   13    5     8     2    1.9440E+02  1.7796E-01   1.9422E+02  0.000E+00  0.000E+00  0.000E+00  1.01873E+03  3.104E+00  4.501E+01  4.586E-01  1.293E-01
   1   13    4     8     3    1.9422E+02 -2.6466E+00   1.9687E+02  0.000E+00  0.000E+00  0.000E+00  1.01249E+03  3.111E+00  4.511E+01  4.597E+00 -1.919E-01
   1   13    3     8     4    1.9687E+02 -3.8111E+00   2.0068E+02  0.000E+00  0.000E+00  0.000E+00  1.00626E+03  3.130E+00  4.539E+01  4.626E+00 -2.746E-01
   1   13    2     8     5    2.0068E+02 -2.7018E+00   2.0338E+02  0.000E+00  0.000E+00  0.000E+00  1.00002E+03  3.150E+00  4.567E+01  4.654E+00 -1.935E-01
   1   13    1     8     6    2.0338E+02 -2.0096E+00   2.0539E+02  0.000E+00  0.000E+00  0.000E+00  9.95038E+02  3.163E+00  4.587E+01  2.805E+00 -2.388E-01
   1    8    6     9     1    0.0000E+00  0.0000E+00   0.0000E+00  0.000E+00  0.000E+00  0.000E+00  1.07875E+03  0.000E+00  4.000E+00  0.000E+00  1.000E+00
   1    8    5     9     2    0.0000E+00  0.0000E+00   0.0000E+00  0.000E+00  0.000E+00  0.000E+00  1.07825E+03  0.000E+00  4.000E+00  0.000E+00  1.000E+00





UNSATURATED ZONE PACKAGE VOLUMETRIC BUDGET FOR  TIME STEP    30 STRESS PERIOD    4
  ------------------------------------------------------------------------------



     CUMULATIVE VOLUMES      L**3       RATES FOR THIS TIME STEP      L**3/T
     ------------------                 ------------------------

           IN:                                      IN:
           ---                                      ---
        INFILTRATION =     6759998.6182          INFILTRATION =           0.8475

          OUT:                                     OUT:
          ----                                     ----
              UZF ET =     5917485.4539                UZF ET =           0.7500
        UZF RECHARGE =       73224.0000          UZF RECHARGE =       0.0000E+00

            IN - OUT =      769289.1644              IN - OUT =       9.7500E-02

          STORAGE:                                 STORAGE:
          --------                                 --------
      STORAGE CHANGE =      769289.2225        STORAGE CHANGE =       9.7500E-02

 PERCENT DISCREPANCY IS DIFFERENCE BETWEEN IN-OUT MINUS CHANGE IN STORAGE
 DIVIDED BY THE AVERAGE OF IN AND OUT TIMES 100

 PERCENT DISCREPANCY =           0.00     PERCENT DISCREPANCY =           0.00






1
  VOLUMETRIC BUDGET FOR AGRICULTURAL FIELDS AT  END OF TIME STEP   30, STRESS PERIOD   4
  ------------------------------------------------------------------------------

     CUMULATIVE VOLUMES      L**3       RATES FOR THIS TIME STEP      L**3/T
     ------------------                 ------------------------

           IN:                                      IN:
           ---                                      ---
           AG WELLS      =           0.0000             AG WELLS      =           0.0000
      DIVERSION SEGMENTS =           0.0000        DIVERSION SEGMENTS =           0.0000
           GW IRRIGATION =           0.0000             GW IRRIGATION =           0.0000
           SW IRRIGATION =           0.0000             SW IRRIGATION =           0.0000
        SYSTEM LOSSES GW =           0.0000          SYSTEM LOSSES GW =           0.0000
        SYSTEM LOSSES SW =           0.0000          SYSTEM LOSSES SW =           0.0000

                TOTAL IN =           0.0000                  TOTAL IN =           0.0000

          OUT:                                     OUT:
          ----                                     ----
           AG WELLS      =           0.0000             AG WELLS      =           0.0000
      DIVERSION SEGMENTS =           0.0000        DIVERSION SEGMENTS =           0.0000
           GW IRRIGATION =           0.0000             GW IRRIGATION =           0.0000
           SW IRRIGATION =           0.0000             SW IRRIGATION =           0.0000
        SYSTEM LOSSES GW =           0.0000          SYSTEM LOSSES GW =           0.0000
        SYSTEM LOSSES SW =           0.0000          SYSTEM LOSSES SW =           0.0000

               TOTAL OUT =           0.0000                 TOTAL OUT =           0.0000

                IN - OUT =           0.0000                  IN - OUT =           0.0000

     PERCENT DISCREPANCY =           0.00         PERCENT DISCREPANCY =           0.00



1
  VOLUMETRIC BUDGET FOR ENTIRE MODEL AT END OF TIME STEP   30, STRESS PERIOD   4
  ------------------------------------------------------------------------------

     CUMULATIVE VOLUMES      L**3       RATES FOR THIS TIME STEP      L**3/T
     ------------------                 ------------------------

           IN:                                      IN:
           ---                                      ---
             STORAGE     =     4352803.5000               STORAGE     =           0.9339
       CONSTANT HEAD     =           0.0000         CONSTANT HEAD     =           0.0000
     HEAD DEP BOUNDS     =     2278729.0000       HEAD DEP BOUNDS     =           0.2857
      STREAM LEAKAGE     =    95891936.0000        STREAM LEAKAGE     =          12.4623
        UZF RECHARGE     =       73223.9531          UZF RECHARGE     =           0.0000
               GW ET     =           0.0000                 GW ET     =           0.0000
     SURFACE LEAKAGE     =           0.0000       SURFACE LEAKAGE     =           0.0000
           AG WELLS      =           0.0000             AG WELLS      =           0.0000

                TOTAL IN =   102596696.0000                  TOTAL IN =          13.6819

          OUT:                                     OUT:
          ----                                     ----
             STORAGE     =    18028010.0000               STORAGE     =           2.2164
       CONSTANT HEAD     =           0.0000         CONSTANT HEAD     =           0.0000
     HEAD DEP BOUNDS     =     2316606.7500       HEAD DEP BOUNDS     =           0.2947
      STREAM LEAKAGE     =    82252224.0000        STREAM LEAKAGE     =          11.1691
        UZF RECHARGE     =           0.0000          UZF RECHARGE     =           0.0000
               GW ET     =        3763.8860                 GW ET     =       2.1214E-03
     SURFACE LEAKAGE     =           0.0000       SURFACE LEAKAGE     =           0.0000
           AG WELLS      =           0.0000             AG WELLS      =           0.0000

               TOTAL OUT =   102600600.0000                 TOTAL OUT =          13.6823

                IN - OUT =       -3904.0000                  IN - OUT =      -3.6430E-04

     PERCENT DISCREPANCY =          -0.00         PERCENT DISCREPANCY =          -0.00






         TIME SUMMARY AT END OF TIME STEP   30 IN STRESS PERIOD    4
                    SECONDS     MINUTES      HOURS       DAYS        YEARS
                    -----------------------------------------------------------
   TIME STEP LENGTH  87667.      1461.1      24.352      1.0147     2.77799E-03
 STRESS PERIOD TIME 2.63000E+06  43833.      730.56      30.440     8.33397E-02
         TOTAL TIME 7.97639E+06 1.32940E+05  2215.7      92.319     0.25276    
1
1
                            STRESS PERIOD NO.    5, LENGTH =   2630000.    
                            -----------------------------------------------

                              NUMBER OF TIME STEPS =    30

                               MULTIPLIER FOR DELT =     1.000

                            INITIAL TIME STEP SIZE =   87666.66    

 REUSING NON-PARAMETER GHB CELLS FROM LAST STRESS PERIOD

      2 GHB CELLS

 REUSING STREAM SEGMENT DATA FROM LAST STRESS PERIOD



            AREAL INFILTRATION RATE
 READING ON UNIT   19 WITH FORMAT: (FREE)              

            1           2           3           4           5           6           7           8           9          10
 ........................................................................................................................
   1   1.0000E-10  2.0000E-10   0.000       0.000       0.000       0.000       0.000       0.000       0.000       0.000    
   2   2.0000E-10  1.0000E-10  2.0000E-10   0.000       0.000      8.0000E-10  8.0000E-10  5.0000E-10   0.000       0.000    
   3    0.000      5.0000E-10  1.0000E-10  1.0000E-10  8.0000E-10  8.0000E-10  5.0000E-10  5.0000E-10   0.000       0.000    
   4   8.0000E-10  5.0000E-10  1.0000E-10  1.0000E-10  1.0000E-10  1.0000E-10  1.0000E-10  1.0000E-10  2.0000E-10   0.000    
   5   8.0000E-10  5.0000E-10  1.0000E-10  1.0000E-10  1.0000E-10  1.0000E-10  1.0000E-10  1.0000E-10  1.0000E-10  1.0000E-10
   6   8.0000E-10  5.0000E-10  5.0000E-10  2.0000E-10  2.0000E-10  1.0000E-10  1.0000E-10  1.0000E-10  1.0000E-10  5.0000E-10
   7   8.0000E-10  5.0000E-10  5.0000E-10  2.0000E-10  2.0000E-10  1.0000E-10  1.0000E-10  2.0000E-10  2.0000E-10   0.000    
   8    0.000      5.0000E-10  5.0000E-10  2.0000E-10  2.0000E-10  1.0000E-10  1.0000E-10  2.0000E-10  5.0000E-10   0.000    
   9    0.000      5.0000E-10  5.0000E-10  2.0000E-10  2.0000E-10  1.0000E-10  1.0000E-10  2.0000E-10  5.0000E-10   0.000    
  10    0.000      5.0000E-10  5.0000E-10  2.0000E-10  2.0000E-10  1.0000E-10  1.0000E-10  2.0000E-10  5.0000E-10  8.0000E-10
  11    0.000      1.0000E-10  1.0000E-10  1.0000E-10  1.0000E-10  1.0000E-10  1.0000E-10  2.0000E-10  5.0000E-10   0.000    
  12   1.0000E-10  1.0000E-10  1.0000E-10  1.0000E-10  1.0000E-10  1.0000E-10  1.0000E-10  1.0000E-10  2.0000E-10   0.000    
  13   1.0000E-10  1.0000E-10  2.0000E-10  2.0000E-10  2.0000E-10  2.0000E-10  2.0000E-10  1.0000E-10  1.0000E-10   0.000    
  14    0.000      2.0000E-10  5.0000E-10  5.0000E-10  5.0000E-10  5.0000E-10  5.0000E-10  2.0000E-10  1.0000E-10   0.000    
  15    0.000       0.000      8.0000E-10  8.0000E-10  8.0000E-10  8.0000E-10   0.000       0.000       0.000       0.000    

                  ET RATE =  2.500000E-08

 USING ET EXTINCTION DEPTH FROM PREVIOUS STRESS PERIOD. CURRENT PERIOD IS:       5

 USING EXTINCTION WATER CONTENT FROM PREVIOUS STRESS PERIOD. CURRENT PERIOD IS:       5

 USING AIR ENTRY PRESSURE FROM PREVIOUS STRESS PERIOD. CURRENT PERIOD IS:       5

 USING ROOT PRESSURE HEAD FROM PREVIOUS STRESS PERIOD. CURRENT PERIOD IS:       5

 USING ROOT ACTIVITY FROM PREVIOUS STRESS PERIOD. CURRENT PERIOD IS:       5

 PROCESSING AG STRESS PERIOD DATA

 READING AG STRESS PERIOD DATA

 READING IRRIGATION SEGMENT

 READING IRRIGATION WELL

 READING SUPPLEMENTAL WELL

 END PROCESSING AG STRESS PERIOD DATA OPTIONS
 
 SOLVING FOR HEAD 
                                                   Max.-Head-Change                         Max.-Flux-Residual
  Residual-Control   Outer-Iter.   Inner-Iter.     Column Row Layer    Maximum-Head-Change  Column Row Layer    Maximum-Flux-Residual          L2-NORM 
          0                 1           2             4   13     1      -0.1463770062E-01       4   13    1        -0.8564697214E+00      0.1451257607E+01
          0                 2           2             4    7     1      -0.1442992414E+01       5    6    1        -0.7750217164E+02      0.1898387750E+03
          0                 3           2             4    7     1       0.1362946229E+00       5    8    1         0.7567663712E+01      0.1847531489E+02
          0                 4           2             4    7     1      -0.5425418235E-02       5    6    1        -0.3094569111E+00      0.7555012569E+00
          0                 5           1             4    7     1       0.6689756545E-04       5    6    1         0.3917679357E-02      0.9594773673E-02

    ------------------------------------------------
       NWT REQUIRED            5 OUTER ITERATIONS 
       AND A TOTAL OF          9 INNER ITERATIONS.
    ------------------------------------------------

 NO OUTPUT CONTROL FOR STRESS PERIOD    5   TIME STEP    1
 
 SOLVING FOR HEAD 
                                                   Max.-Head-Change                         Max.-Flux-Residual
  Residual-Control   Outer-Iter.   Inner-Iter.     Column Row Layer    Maximum-Head-Change  Column Row Layer    Maximum-Flux-Residual          L2-NORM 
          0                 1           2             5    8     1       0.3996735098E-01       5    8    1         0.2201539619E+01      0.4879828892E+01
          0                 2           2             5    8     1      -0.3889877621E-02       5    8    1        -0.2202730243E+00      0.4875453178E+00
          0                 3           2             5    8     1       0.2669009458E-03       5    8    1         0.1553305491E-01      0.3426942489E-01
          0                 4           1             5    8     1      -0.1258100291E-04       5    8    1        -0.7492875209E-03      0.1606949898E-02

    ------------------------------------------------
       NWT REQUIRED            4 OUTER ITERATIONS 
       AND A TOTAL OF          7 INNER ITERATIONS.
    ------------------------------------------------

 OUTPUT CONTROL FOR STRESS PERIOD    5   TIME STEP    2
    PRINT BUDGET
    SAVE BUDGET
 UBDSV1 SAVING "         STORAGE" ON UNIT 102 AT TIME STEP  2, STRESS PERIOD   5
 UBDSV2 SAVING "   CONSTANT HEAD" ON UNIT 102 AT TIME STEP  2, STRESS PERIOD   5
 UBDSV1 SAVING "FLOW RIGHT FACE " ON UNIT 102 AT TIME STEP  2, STRESS PERIOD   5
 UBDSV1 SAVING "FLOW FRONT FACE " ON UNIT 102 AT TIME STEP  2, STRESS PERIOD   5

  HEAD DEP BOUNDS   PERIOD    5   STEP     2
 BOUNDARY      1   LAYER   1   ROW    13   COL     1   RATE   -0.294173    
 BOUNDARY      2   LAYER   1   ROW    14   COL     9   RATE    0.285737    



 STREAM LISTING     PERIOD      5   STEP        2

 LAYER ROW COL. STREAM  RCH.  FLOW INTO     FLOW TO   FLOW OUT OF   OVRLND.     DIRECT     STREAM       STREAM     STREAM     STREAM   STREAMBED  STREAMBED
                SEG.NO.  NO.  STRM. RCH.    AQUIFER    STRM. RCH.    RUNOFF     PRECIP       ET          HEAD       DEPTH      WIDTH   CONDCTNC.   GRADIENT

   1    1    1     1     1    2.1000E+01  2.2591E-01   2.0774E+01  0.000E+00  0.000E+00  0.000E+00  1.09416E+03  1.115E+00  1.220E+01  5.490E-02  1.372E+00
   1    2    2     1     2    2.0774E+01  3.4916E-01   2.0425E+01  0.000E+00  0.000E+00  0.000E+00  1.08917E+03  1.110E+00  1.214E+01  8.495E-02  1.370E+00
   1    3    3     1     3    2.0425E+01  2.9709E-01   2.0128E+01  0.000E+00  0.000E+00  0.000E+00  1.08352E+03  1.105E+00  1.206E+01  7.238E-02  1.368E+00
   1    3    4     1     4    2.0128E+01  2.7299E-01   1.9855E+01  0.000E+00  0.000E+00  0.000E+00  1.07851E+03  1.100E+00  1.200E+01  6.659E-02  1.367E+00
   1    4    5     2     1    1.7855E+01  3.1056E-01   1.7544E+01  0.000E+00  0.000E+00  0.000E+00  1.07292E+03  9.816E-01  1.200E+01  7.800E-02  1.327E+00
   1    5    6     2     2    1.7544E+01  2.3834E-01   1.7306E+01  0.000E+00  0.000E+00  0.000E+00  1.06748E+03  9.724E-01  1.200E+01  6.000E-02  1.324E+00
   1    6    6     2     3    1.7306E+01  2.3786E-01   1.7068E+01  0.000E+00  0.000E+00  0.000E+00  1.06276E+03  9.644E-01  1.200E+01  6.000E-02  1.321E+00
   1    7    6     2     4    1.7068E+01  2.3738E-01   1.6831E+01  0.000E+00  0.000E+00  0.000E+00  1.05803E+03  9.564E-01  1.200E+01  6.000E-02  1.319E+00
   1    8    6     2     5    1.6831E+01  2.3690E-01   1.6594E+01  0.000E+00  0.000E+00  0.000E+00  1.05331E+03  9.483E-01  1.200E+01  6.000E-02  1.316E+00
   1    3    5     3     1    2.0000E+00  2.8252E-01   1.7175E+00  0.000E+00  0.000E+00  0.000E+00  1.07555E+03  1.909E+00  9.636E+00  7.227E-02  1.955E+00
   1    3    6     3     2    1.7175E+00  2.4905E-01   1.4684E+00  0.000E+00  0.000E+00  0.000E+00  1.07264E+03  1.727E+00  8.909E+00  6.682E-02  1.864E+00
   1    3    7     3     3    1.4684E+00  1.9718E-01   1.2712E+00  0.000E+00  0.000E+00  0.000E+00  1.06987E+03  1.555E+00  8.218E+00  5.547E-02  1.777E+00
   1    4    8     3     4    1.2712E+00  2.2567E-01   1.0456E+00  0.000E+00  0.000E+00  0.000E+00  1.06682E+03  1.364E+00  7.455E+00  6.709E-02  1.682E+00
   1    5    8     3     5    1.0456E+00  1.5790E-01   8.8768E-01  0.000E+00  0.000E+00  0.000E+00  1.06362E+03  1.164E+00  6.655E+00  4.991E-02  1.582E+00
   1    6    8     3     6    8.8768E-01  5.5980E-02   8.3170E-01  0.000E+00  0.000E+00  0.000E+00  1.06158E+03  1.036E+00  6.145E+00  1.844E-02  1.518E+00
   1    5   10     4     1    1.0000E+01  9.0919E-02   9.9091E+00  0.000E+00  0.000E+00  0.000E+00  1.07836E+03  6.368E-01  1.000E+01  2.500E-02  1.212E+00
   1    5    9     4     2    9.9091E+00  1.8158E-01   9.7275E+00  0.000E+00  0.000E+00  0.000E+00  1.07154E+03  6.315E-01  1.000E+01  5.000E-02  1.211E+00
   1    6    8     4     3    9.7275E+00  1.2689E-01   9.6006E+00  0.000E+00  0.000E+00  0.000E+00  1.06381E+03  6.256E-01  1.000E+01  3.500E-02  1.209E+00
   1    6    8     5     1    1.0432E+01  2.2686E-01   1.0205E+01  0.000E+00  0.000E+00  0.000E+00  1.05868E+03  6.790E-01  1.542E+01  6.166E-02  1.226E+00
   1    7    7     5     2    1.0205E+01  2.7894E-01   9.9265E+00  0.000E+00  0.000E+00  0.000E+00  1.05417E+03  6.732E-01  1.519E+01  7.594E-02  1.224E+00
   1    8    7     5     3    9.9265E+00  1.9221E-01   9.7343E+00  0.000E+00  0.000E+00  0.000E+00  1.04992E+03  6.676E-01  1.497E+01  5.241E-02  1.223E+00
   1    8    6     5     4    9.7343E+00  1.3577E-01   9.5985E+00  0.000E+00  0.000E+00  0.000E+00  1.04691E+03  6.637E-01  1.482E+01  3.706E-02  1.221E+00
   1    9    6     6     1    2.6191E+01  2.5512E-01   2.5936E+01  0.000E+00  0.000E+00  0.000E+00  1.04398E+03  1.252E+00  1.200E+01  6.000E-02  1.417E+00
   1   10    7     6     2    2.5936E+01  2.5468E-01   2.5681E+01  0.000E+00  0.000E+00  0.000E+00  1.03943E+03  1.245E+00  1.200E+01  6.000E-02  1.415E+00
   1   11    7     6     3    2.5681E+01  2.5423E-01   2.5427E+01  0.000E+00  0.000E+00  0.000E+00  1.03487E+03  1.237E+00  1.200E+01  6.000E-02  1.412E+00
   1   12    7     6     4    2.5427E+01  2.5379E-01   2.5173E+01  0.000E+00  0.000E+00  0.000E+00  1.03032E+03  1.230E+00  1.200E+01  6.000E-02  1.410E+00
   1   13    7     6     5    2.5173E+01  1.0481E-04   2.5173E+01  0.000E+00  0.000E+00  0.000E+00  1.02714E+03  1.226E+00  1.200E+01  2.400E-02  1.456E-03
   1   14    9     7     1    1.5000E+02  1.3355E+00   1.4866E+02  0.000E+00  0.000E+00  0.000E+00  1.03987E+03  2.288E+00  5.529E+01  5.593E-01  7.959E-01
   1   13    8     7     2    1.4866E+02  1.8267E+00   1.4684E+02  0.000E+00  0.000E+00  0.000E+00  1.03478E+03  2.279E+00  5.526E+01  6.148E-01  9.904E-01
   1   13    7     7     3    1.4684E+02  1.4292E+00   1.4541E+02  0.000E+00  0.000E+00  0.000E+00  1.02969E+03  2.271E+00  5.522E+01  5.585E-01  8.530E-01
   1   13    6     8     1    1.7058E+02  8.5753E-01   1.6972E+02  0.000E+00  0.000E+00  0.000E+00  1.02483E+03  2.953E+00  4.282E+01  4.364E-01  6.551E-01
   1   13    5     8     2    1.6972E+02  1.0301E-01   1.6962E+02  0.000E+00  0.000E+00  0.000E+00  1.01858E+03  2.950E+00  4.278E+01  4.359E-01  7.877E-02
   1   13    4     8     3    1.6962E+02 -3.0604E+00   1.7268E+02  0.000E+00  0.000E+00  0.000E+00  1.01233E+03  2.960E+00  4.292E+01  4.373E+00 -2.333E-01
   1   13    3     8     4    1.7268E+02 -4.1690E+00   1.7685E+02  0.000E+00  0.000E+00  0.000E+00  1.00611E+03  2.983E+00  4.325E+01  4.408E+00 -3.153E-01
   1   13    2     8     5    1.7685E+02 -3.1025E+00   1.7995E+02  0.000E+00  0.000E+00  0.000E+00  9.99881E+02  3.006E+00  4.359E+01  4.442E+00 -2.328E-01
   1   13    1     8     6    1.7995E+02 -2.2604E+00   1.8221E+02  0.000E+00  0.000E+00  0.000E+00  9.94898E+02  3.023E+00  4.383E+01  2.680E+00 -2.811E-01
   1    8    6     9     1    1.3683E-03  0.0000E+00   1.3683E-03  0.000E+00  0.000E+00  0.000E+00  1.07876E+03  1.089E-02  4.000E+00  0.000E+00  1.004E+00
   1    8    5     9     2    1.3683E-03  0.0000E+00   1.3683E-03  0.000E+00  0.000E+00  0.000E+00  1.07826E+03  1.089E-02  4.000E+00  0.000E+00  1.004E+00



 UBDSV3 SAVING "           GW ET" ON UNIT  61 AT TIME STEP  2, STRESS PERIOD   5
 UBDSV3 SAVING "    UZF RECHARGE" ON UNIT  61 AT TIME STEP  2, STRESS PERIOD   5
 UBDSV3 SAVING " SURFACE LEAKAGE" ON UNIT  61 AT TIME STEP  2, STRESS PERIOD   5
 UBDSV3 SAVING "       HORT+DUNN" ON UNIT  61 AT TIME STEP  2, STRESS PERIOD   5
 UBDSV3 SAVING "  STORAGE CHANGE" ON UNIT  61 AT TIME STEP  2, STRESS PERIOD   5


UNSATURATED ZONE PACKAGE VOLUMETRIC BUDGET FOR  TIME STEP     2 STRESS PERIOD    5
  ------------------------------------------------------------------------------



     CUMULATIVE VOLUMES      L**3       RATES FOR THIS TIME STEP      L**3/T
     ------------------                 ------------------------

           IN:                                      IN:
           ---                                      ---
        INFILTRATION =    48002552.5617          INFILTRATION =           0.8489

          OUT:                                     OUT:
          ----                                     ----
              UZF ET =     7403799.9883                UZF ET =           4.5675
        UZF RECHARGE =       73224.0000          UZF RECHARGE =       0.0000E+00

            IN - OUT =    40525528.5734              IN - OUT =          -3.7186

          STORAGE:                                 STORAGE:
          --------                                 --------
      STORAGE CHANGE =    40541064.9590        STORAGE CHANGE =          -3.5414

 PERCENT DISCREPANCY IS DIFFERENCE BETWEEN IN-OUT MINUS CHANGE IN STORAGE
 DIVIDED BY THE AVERAGE OF IN AND OUT TIMES 100

 PERCENT DISCREPANCY =          -0.01     PERCENT DISCREPANCY =          -3.88






 

        AG WELLS          PERIOD    5   STEP   2
 AG WELL      1   LAYER   1   ROW     6   COL     4   RATE   -1.140029E-04
 AG WELL      2   LAYER   1   ROW     6   COL     5   RATE   -1.140029E-04
 AG WELL      3   LAYER   1   ROW     7   COL     4   RATE   -1.140029E-04
 AG WELL      4   LAYER   1   ROW     7   COL     5   RATE   -1.140029E-04
 AG WELL      5   LAYER   1   ROW     8   COL     4   RATE   -1.140029E-04
 AG WELL      6   LAYER   1   ROW     8   COL     5   RATE   -1.140029E-04
 
 

   DIVERSION SEGMENTS     PERIOD    5   STEP   2
 SEGMENT      9   RATE    1.368256E-03
 
 

        SW IRRIGATION     PERIOD    5   STEP   2
 SEGMENT      9   ROW     6   COL     4   RATE    1.140421E-04
 SEGMENT      9   ROW     6   COL     5   RATE    1.140421E-04
 SEGMENT      9   ROW     7   COL     4   RATE    1.140421E-04
 SEGMENT      9   ROW     7   COL     5   RATE    1.140421E-04
 SEGMENT      9   ROW     8   COL     4   RATE    1.140421E-04
 SEGMENT      9   ROW     8   COL     5   RATE    1.140421E-04
 
 

        GW IRRIGATION     PERIOD    5   STEP   2
 AG WELL      1   ROW     6   COL     4   RATE    1.140029E-04
 AG WELL      2   ROW     6   COL     5   RATE    1.140029E-04
 AG WELL      3   ROW     7   COL     4   RATE    1.140029E-04
 AG WELL      4   ROW     7   COL     5   RATE    1.140029E-04
 AG WELL      5   ROW     8   COL     4   RATE    1.140029E-04
 AG WELL      6   ROW     8   COL     5   RATE    1.140029E-04
 
1
  VOLUMETRIC BUDGET FOR AGRICULTURAL FIELDS AT  END OF TIME STEP    2, STRESS PERIOD   5
  ------------------------------------------------------------------------------

     CUMULATIVE VOLUMES      L**3       RATES FOR THIS TIME STEP      L**3/T
     ------------------                 ------------------------

           IN:                                      IN:
           ---                                      ---
           AG WELLS      =    39639148.0000             AG WELLS      =       6.8402E-04
      DIVERSION SEGMENTS =     1454838.5000        DIVERSION SEGMENTS =       1.3683E-03
           GW IRRIGATION =           0.0000             GW IRRIGATION =           0.0000
           SW IRRIGATION =           0.0000             SW IRRIGATION =           0.0000
        SYSTEM LOSSES GW =           0.0000          SYSTEM LOSSES GW =           0.0000
        SYSTEM LOSSES SW =           0.0000          SYSTEM LOSSES SW =           0.0000

                TOTAL IN =    41093988.0000                  TOTAL IN =       2.0523E-03

          OUT:                                     OUT:
          ----                                     ----
           AG WELLS      =           0.0000             AG WELLS      =           0.0000
      DIVERSION SEGMENTS =           0.0000        DIVERSION SEGMENTS =           0.0000
           GW IRRIGATION =    39639148.0000             GW IRRIGATION =       6.8402E-04
           SW IRRIGATION =     1454867.5000             SW IRRIGATION =       1.3683E-03
        SYSTEM LOSSES GW =           0.0000          SYSTEM LOSSES GW =           0.0000
        SYSTEM LOSSES SW =           0.0000          SYSTEM LOSSES SW =           0.0000

               TOTAL OUT =    41094016.0000                 TOTAL OUT =       2.0523E-03

                IN - OUT =         -28.0000                  IN - OUT =      -2.7241E-08

     PERCENT DISCREPANCY =          -0.00         PERCENT DISCREPANCY =          -0.00



1
  VOLUMETRIC BUDGET FOR ENTIRE MODEL AT END OF TIME STEP    2, STRESS PERIOD   5
  ------------------------------------------------------------------------------

     CUMULATIVE VOLUMES      L**3       RATES FOR THIS TIME STEP      L**3/T
     ------------------                 ------------------------

           IN:                                      IN:
           ---                                      ---
             STORAGE     =    45278544.0000               STORAGE     =          10.5858
       CONSTANT HEAD     =           0.0000         CONSTANT HEAD     =           0.0000
     HEAD DEP BOUNDS     =     2328828.0000       HEAD DEP BOUNDS     =           0.2857
      STREAM LEAKAGE     =    97863544.0000        STREAM LEAKAGE     =          11.3775
        UZF RECHARGE     =       73223.9531          UZF RECHARGE     =           0.0000
               GW ET     =           0.0000                 GW ET     =           0.0000
     SURFACE LEAKAGE     =           0.0000       SURFACE LEAKAGE     =           0.0000
           AG WELLS      =           0.0000             AG WELLS      =           0.0000

                TOTAL IN =   145544128.0000                  TOTAL IN =          22.2491

          OUT:                                     OUT:
          ----                                     ----
             STORAGE     =    18931694.0000               STORAGE     =           9.2525
       CONSTANT HEAD     =           0.0000         CONSTANT HEAD     =           0.0000
     HEAD DEP BOUNDS     =     2368202.0000       HEAD DEP BOUNDS     =           0.2942
      STREAM LEAKAGE     =    84583856.0000        STREAM LEAKAGE     =          12.5923
        UZF RECHARGE     =           0.0000          UZF RECHARGE     =           0.0000
               GW ET     =       25119.3359                 GW ET     =           0.1095
     SURFACE LEAKAGE     =           0.0000       SURFACE LEAKAGE     =           0.0000
           AG WELLS      =    39639148.0000             AG WELLS      =       6.8402E-04

               TOTAL OUT =   145548016.0000                 TOTAL OUT =          22.2491

                IN - OUT =       -3888.0000                  IN - OUT =       9.5367E-06

     PERCENT DISCREPANCY =          -0.00         PERCENT DISCREPANCY =           0.00






         TIME SUMMARY AT END OF TIME STEP    2 IN STRESS PERIOD    5
                    SECONDS     MINUTES      HOURS       DAYS        YEARS
                    -----------------------------------------------------------
   TIME STEP LENGTH  87667.      1461.1      24.352      1.0147     2.77799E-03
 STRESS PERIOD TIME 1.75333E+05  2922.2      48.704      2.0293     5.55598E-03
         TOTAL TIME 8.15173E+06 1.35862E+05  2264.4      94.349     0.25831    
1
 
 SOLVING FOR HEAD 
                                                   Max.-Head-Change                         Max.-Flux-Residual
  Residual-Control   Outer-Iter.   Inner-Iter.     Column Row Layer    Maximum-Head-Change  Column Row Layer    Maximum-Flux-Residual          L2-NORM 
          0                 1           2             5    8     1       0.3773878111E-01       5    8    1         0.2076980142E+01      0.4631742746E+01
          0                 2           2             5    8     1      -0.3673089874E-02       5    8    1        -0.2078164682E+00      0.4628046671E+00
          0                 3           2             5    8     1       0.2521385822E-03       5    8    1         0.1466110137E-01      0.3254846307E-01
          0                 4           1             5    8     1      -0.1199358816E-04       5    8    1        -0.7136245565E-03      0.1540584596E-02

    ------------------------------------------------
       NWT REQUIRED            4 OUTER ITERATIONS 
       AND A TOTAL OF          7 INNER ITERATIONS.
    ------------------------------------------------

 OUTPUT CONTROL FOR STRESS PERIOD    5   TIME STEP    3
    PRINT BUDGET
    SAVE BUDGET
 UBDSV1 SAVING "         STORAGE" ON UNIT 102 AT TIME STEP  3, STRESS PERIOD   5
 UBDSV2 SAVING "   CONSTANT HEAD" ON UNIT 102 AT TIME STEP  3, STRESS PERIOD   5
 UBDSV1 SAVING "FLOW RIGHT FACE " ON UNIT 102 AT TIME STEP  3, STRESS PERIOD   5
 UBDSV1 SAVING "FLOW FRONT FACE " ON UNIT 102 AT TIME STEP  3, STRESS PERIOD   5

  HEAD DEP BOUNDS   PERIOD    5   STEP     3
 BOUNDARY      1   LAYER   1   ROW    13   COL     1   RATE   -0.293987    
 BOUNDARY      2   LAYER   1   ROW    14   COL     9   RATE    0.285738    



 STREAM LISTING     PERIOD      5   STEP        3

 LAYER ROW COL. STREAM  RCH.  FLOW INTO     FLOW TO   FLOW OUT OF   OVRLND.     DIRECT     STREAM       STREAM     STREAM     STREAM   STREAMBED  STREAMBED
                SEG.NO.  NO.  STRM. RCH.    AQUIFER    STRM. RCH.    RUNOFF     PRECIP       ET          HEAD       DEPTH      WIDTH   CONDCTNC.   GRADIENT

   1    1    1     1     1    2.1000E+01  2.2591E-01   2.0774E+01  0.000E+00  0.000E+00  0.000E+00  1.09416E+03  1.115E+00  1.220E+01  5.490E-02  1.372E+00
   1    2    2     1     2    2.0774E+01  3.4916E-01   2.0425E+01  0.000E+00  0.000E+00  0.000E+00  1.08917E+03  1.110E+00  1.214E+01  8.495E-02  1.370E+00
   1    3    3     1     3    2.0425E+01  2.9709E-01   2.0128E+01  0.000E+00  0.000E+00  0.000E+00  1.08352E+03  1.105E+00  1.206E+01  7.238E-02  1.368E+00
   1    3    4     1     4    2.0128E+01  2.7299E-01   1.9855E+01  0.000E+00  0.000E+00  0.000E+00  1.07851E+03  1.100E+00  1.200E+01  6.659E-02  1.367E+00
   1    4    5     2     1    1.7855E+01  3.1056E-01   1.7544E+01  0.000E+00  0.000E+00  0.000E+00  1.07292E+03  9.816E-01  1.200E+01  7.800E-02  1.327E+00
   1    5    6     2     2    1.7544E+01  2.3834E-01   1.7306E+01  0.000E+00  0.000E+00  0.000E+00  1.06748E+03  9.724E-01  1.200E+01  6.000E-02  1.324E+00
   1    6    6     2     3    1.7306E+01  2.3786E-01   1.7068E+01  0.000E+00  0.000E+00  0.000E+00  1.06276E+03  9.644E-01  1.200E+01  6.000E-02  1.321E+00
   1    7    6     2     4    1.7068E+01  2.3738E-01   1.6831E+01  0.000E+00  0.000E+00  0.000E+00  1.05803E+03  9.564E-01  1.200E+01  6.000E-02  1.319E+00
   1    8    6     2     5    1.6831E+01  2.3690E-01   1.6594E+01  0.000E+00  0.000E+00  0.000E+00  1.05331E+03  9.483E-01  1.200E+01  6.000E-02  1.316E+00
   1    3    5     3     1    2.0000E+00  2.8252E-01   1.7175E+00  0.000E+00  0.000E+00  0.000E+00  1.07555E+03  1.909E+00  9.636E+00  7.227E-02  1.955E+00
   1    3    6     3     2    1.7175E+00  2.4905E-01   1.4684E+00  0.000E+00  0.000E+00  0.000E+00  1.07264E+03  1.727E+00  8.909E+00  6.682E-02  1.864E+00
   1    3    7     3     3    1.4684E+00  1.9718E-01   1.2712E+00  0.000E+00  0.000E+00  0.000E+00  1.06987E+03  1.555E+00  8.218E+00  5.547E-02  1.777E+00
   1    4    8     3     4    1.2712E+00  2.2567E-01   1.0456E+00  0.000E+00  0.000E+00  0.000E+00  1.06682E+03  1.364E+00  7.455E+00  6.709E-02  1.682E+00
   1    5    8     3     5    1.0456E+00  1.5790E-01   8.8768E-01  0.000E+00  0.000E+00  0.000E+00  1.06362E+03  1.164E+00  6.655E+00  4.991E-02  1.582E+00
   1    6    8     3     6    8.8768E-01  5.5980E-02   8.3170E-01  0.000E+00  0.000E+00  0.000E+00  1.06158E+03  1.036E+00  6.145E+00  1.844E-02  1.518E+00
   1    5   10     4     1    1.0000E+01  9.0919E-02   9.9091E+00  0.000E+00  0.000E+00  0.000E+00  1.07836E+03  6.368E-01  1.000E+01  2.500E-02  1.212E+00
   1    5    9     4     2    9.9091E+00  1.8158E-01   9.7275E+00  0.000E+00  0.000E+00  0.000E+00  1.07154E+03  6.315E-01  1.000E+01  5.000E-02  1.211E+00
   1    6    8     4     3    9.7275E+00  1.2689E-01   9.6006E+00  0.000E+00  0.000E+00  0.000E+00  1.06381E+03  6.256E-01  1.000E+01  3.500E-02  1.209E+00
   1    6    8     5     1    1.0432E+01  2.2686E-01   1.0205E+01  0.000E+00  0.000E+00  0.000E+00  1.05868E+03  6.790E-01  1.542E+01  6.166E-02  1.226E+00
   1    7    7     5     2    1.0205E+01  2.7894E-01   9.9265E+00  0.000E+00  0.000E+00  0.000E+00  1.05417E+03  6.732E-01  1.519E+01  7.594E-02  1.224E+00
   1    8    7     5     3    9.9265E+00  1.9221E-01   9.7343E+00  0.000E+00  0.000E+00  0.000E+00  1.04992E+03  6.676E-01  1.497E+01  5.241E-02  1.223E+00
   1    8    6     5     4    9.7343E+00  1.3577E-01   9.5985E+00  0.000E+00  0.000E+00  0.000E+00  1.04691E+03  6.637E-01  1.482E+01  3.706E-02  1.221E+00
   1    9    6     6     1    2.6191E+01  2.5512E-01   2.5936E+01  0.000E+00  0.000E+00  0.000E+00  1.04398E+03  1.252E+00  1.200E+01  6.000E-02  1.417E+00
   1   10    7     6     2    2.5936E+01  2.5468E-01   2.5681E+01  0.000E+00  0.000E+00  0.000E+00  1.03943E+03  1.245E+00  1.200E+01  6.000E-02  1.415E+00
   1   11    7     6     3    2.5681E+01  2.5423E-01   2.5427E+01  0.000E+00  0.000E+00  0.000E+00  1.03487E+03  1.237E+00  1.200E+01  6.000E-02  1.412E+00
   1   12    7     6     4    2.5427E+01  2.5379E-01   2.5173E+01  0.000E+00  0.000E+00  0.000E+00  1.03032E+03  1.230E+00  1.200E+01  6.000E-02  1.410E+00
   1   13    7     6     5    2.5173E+01  9.4192E-05   2.5173E+01  0.000E+00  0.000E+00  0.000E+00  1.02714E+03  1.226E+00  1.200E+01  2.400E-02  1.308E-03
   1   14    9     7     1    1.5000E+02  1.3355E+00   1.4866E+02  0.000E+00  0.000E+00  0.000E+00  1.03987E+03  2.288E+00  5.529E+01  5.593E-01  7.959E-01
   1   13    8     7     2    1.4866E+02  1.8266E+00   1.4684E+02  0.000E+00  0.000E+00  0.000E+00  1.03478E+03  2.279E+00  5.526E+01  6.148E-01  9.904E-01
   1   13    7     7     3    1.4684E+02  1.4289E+00   1.4541E+02  0.000E+00  0.000E+00  0.000E+00  1.02969E+03  2.271E+00  5.522E+01  5.585E-01  8.529E-01
   1   13    6     8     1    1.7058E+02  8.5805E-01   1.6972E+02  0.000E+00  0.000E+00  0.000E+00  1.02483E+03  2.953E+00  4.282E+01  4.364E-01  6.555E-01
   1   13    5     8     2    1.6972E+02  1.0335E-01   1.6962E+02  0.000E+00  0.000E+00  0.000E+00  1.01858E+03  2.950E+00  4.278E+01  4.359E-01  7.903E-02
   1   13    4     8     3    1.6962E+02 -3.0213E+00   1.7264E+02  0.000E+00  0.000E+00  0.000E+00  1.01233E+03  2.960E+00  4.291E+01  4.373E+00 -2.303E-01
   1   13    3     8     4    1.7264E+02 -4.1316E+00   1.7677E+02  0.000E+00  0.000E+00  0.000E+00  1.00611E+03  2.983E+00  4.325E+01  4.407E+00 -3.125E-01
   1   13    2     8     5    1.7677E+02 -3.0651E+00   1.7984E+02  0.000E+00  0.000E+00  0.000E+00  9.99880E+02  3.005E+00  4.358E+01  4.441E+00 -2.301E-01
   1   13    1     8     6    1.7984E+02 -2.2487E+00   1.8209E+02  0.000E+00  0.000E+00  0.000E+00  9.94897E+02  3.022E+00  4.382E+01  2.679E+00 -2.798E-01
   1    8    6     9     1    1.3683E-03  0.0000E+00   1.3683E-03  0.000E+00  0.000E+00  0.000E+00  1.07876E+03  1.089E-02  4.000E+00  0.000E+00  1.004E+00
   1    8    5     9     2    1.3683E-03  0.0000E+00   1.3683E-03  0.000E+00  0.000E+00  0.000E+00  1.07826E+03  1.089E-02  4.000E+00  0.000E+00  1.004E+00



 UBDSV3 SAVING "           GW ET" ON UNIT  61 AT TIME STEP  3, STRESS PERIOD   5
 UBDSV3 SAVING "    UZF RECHARGE" ON UNIT  61 AT TIME STEP  3, STRESS PERIOD   5
 UBDSV3 SAVING " SURFACE LEAKAGE" ON UNIT  61 AT TIME STEP  3, STRESS PERIOD   5
 UBDSV3 SAVING "       HORT+DUNN" ON UNIT  61 AT TIME STEP  3, STRESS PERIOD   5
 UBDSV3 SAVING "  STORAGE CHANGE" ON UNIT  61 AT TIME STEP  3, STRESS PERIOD   5


UNSATURATED ZONE PACKAGE VOLUMETRIC BUDGET FOR  TIME STEP     3 STRESS PERIOD    5
  ------------------------------------------------------------------------------



     CUMULATIVE VOLUMES      L**3       RATES FOR THIS TIME STEP      L**3/T
     ------------------                 ------------------------

           IN:                                      IN:
           ---                                      ---
        INFILTRATION =    48076970.0093          INFILTRATION =           0.8489

          OUT:                                     OUT:
          ----                                     ----
              UZF ET =     7804217.4686                UZF ET =           4.5675
        UZF RECHARGE =       73224.0000          UZF RECHARGE =       0.0000E+00

            IN - OUT =    40199528.5407              IN - OUT =          -3.7186

          STORAGE:                                 STORAGE:
          --------                                 --------
      STORAGE CHANGE =    40215064.9166        STORAGE CHANGE =          -3.7186

 PERCENT DISCREPANCY IS DIFFERENCE BETWEEN IN-OUT MINUS CHANGE IN STORAGE
 DIVIDED BY THE AVERAGE OF IN AND OUT TIMES 100

 PERCENT DISCREPANCY =          -0.01     PERCENT DISCREPANCY =           0.00






 

        AG WELLS          PERIOD    5   STEP   3
 AG WELL      1   LAYER   1   ROW     6   COL     4   RATE   -1.140029E-04
 AG WELL      2   LAYER   1   ROW     6   COL     5   RATE   -1.140029E-04
 AG WELL      3   LAYER   1   ROW     7   COL     4   RATE   -1.140029E-04
 AG WELL      4   LAYER   1   ROW     7   COL     5   RATE   -1.140029E-04
 AG WELL      5   LAYER   1   ROW     8   COL     4   RATE   -1.140029E-04
 AG WELL      6   LAYER   1   ROW     8   COL     5   RATE   -1.140029E-04
 
 

   DIVERSION SEGMENTS     PERIOD    5   STEP   3
 SEGMENT      9   RATE    1.368256E-03
 
 

        SW IRRIGATION     PERIOD    5   STEP   3
 SEGMENT      9   ROW     6   COL     4   RATE    1.140421E-04
 SEGMENT      9   ROW     6   COL     5   RATE    1.140421E-04
 SEGMENT      9   ROW     7   COL     4   RATE    1.140421E-04
 SEGMENT      9   ROW     7   COL     5   RATE    1.140421E-04
 SEGMENT      9   ROW     8   COL     4   RATE    1.140421E-04
 SEGMENT      9   ROW     8   COL     5   RATE    1.140421E-04
 
 

        GW IRRIGATION     PERIOD    5   STEP   3
 AG WELL      1   ROW     6   COL     4   RATE    1.140029E-04
 AG WELL      2   ROW     6   COL     5   RATE    1.140029E-04
 AG WELL      3   ROW     7   COL     4   RATE    1.140029E-04
 AG WELL      4   ROW     7   COL     5   RATE    1.140029E-04
 AG WELL      5   ROW     8   COL     4   RATE    1.140029E-04
 AG WELL      6   ROW     8   COL     5   RATE    1.140029E-04
 
1
  VOLUMETRIC BUDGET FOR AGRICULTURAL FIELDS AT  END OF TIME STEP    3, STRESS PERIOD   5
  ------------------------------------------------------------------------------

     CUMULATIVE VOLUMES      L**3       RATES FOR THIS TIME STEP      L**3/T
     ------------------                 ------------------------

           IN:                                      IN:
           ---                                      ---
           AG WELLS      =    39639208.0000             AG WELLS      =       6.8402E-04
      DIVERSION SEGMENTS =     1454958.5000        DIVERSION SEGMENTS =       1.3683E-03
           GW IRRIGATION =           0.0000             GW IRRIGATION =           0.0000
           SW IRRIGATION =           0.0000             SW IRRIGATION =           0.0000
        SYSTEM LOSSES GW =           0.0000          SYSTEM LOSSES GW =           0.0000
        SYSTEM LOSSES SW =           0.0000          SYSTEM LOSSES SW =           0.0000

                TOTAL IN =    41094168.0000                  TOTAL IN =       2.0523E-03

          OUT:                                     OUT:
          ----                                     ----
           AG WELLS      =           0.0000             AG WELLS      =           0.0000
      DIVERSION SEGMENTS =           0.0000        DIVERSION SEGMENTS =           0.0000
           GW IRRIGATION =    39639208.0000             GW IRRIGATION =       6.8402E-04
           SW IRRIGATION =     1454987.5000             SW IRRIGATION =       1.3683E-03
        SYSTEM LOSSES GW =           0.0000          SYSTEM LOSSES GW =           0.0000
        SYSTEM LOSSES SW =           0.0000          SYSTEM LOSSES SW =           0.0000

               TOTAL OUT =    41094196.0000                 TOTAL OUT =       2.0523E-03

                IN - OUT =         -28.0000                  IN - OUT =      -2.7241E-08

     PERCENT DISCREPANCY =          -0.00         PERCENT DISCREPANCY =          -0.00



1
  VOLUMETRIC BUDGET FOR ENTIRE MODEL AT END OF TIME STEP    3, STRESS PERIOD   5
  ------------------------------------------------------------------------------

     CUMULATIVE VOLUMES      L**3       RATES FOR THIS TIME STEP      L**3/T
     ------------------                 ------------------------

           IN:                                      IN:
           ---                                      ---
             STORAGE     =    46164260.0000               STORAGE     =          10.1032
       CONSTANT HEAD     =           0.0000         CONSTANT HEAD     =           0.0000
     HEAD DEP BOUNDS     =     2353877.7500       HEAD DEP BOUNDS     =           0.2857
      STREAM LEAKAGE     =    98861016.0000        STREAM LEAKAGE     =          11.3780
        UZF RECHARGE     =       73223.9531          UZF RECHARGE     =           0.0000
               GW ET     =           0.0000                 GW ET     =           0.0000
     SURFACE LEAKAGE     =           0.0000       SURFACE LEAKAGE     =           0.0000
           AG WELLS      =           0.0000             AG WELLS      =           0.0000

                TOTAL IN =   147452368.0000                  TOTAL IN =          21.7670

          OUT:                                     OUT:
          ----                                     ----
             STORAGE     =    19713504.0000               STORAGE     =           8.9180
       CONSTANT HEAD     =           0.0000         CONSTANT HEAD     =           0.0000
     HEAD DEP BOUNDS     =     2393974.7500       HEAD DEP BOUNDS     =           0.2940
      STREAM LEAKAGE     =    85676784.0000        STREAM LEAKAGE     =          12.4668
        UZF RECHARGE     =           0.0000          UZF RECHARGE     =           0.0000
               GW ET     =       32787.8086                 GW ET     =       8.7473E-02
     SURFACE LEAKAGE     =           0.0000       SURFACE LEAKAGE     =           0.0000
           AG WELLS      =    39639208.0000             AG WELLS      =       6.8402E-04

               TOTAL OUT =   147456256.0000                 TOTAL OUT =          21.7670

                IN - OUT =       -3888.0000                  IN - OUT =       9.5367E-06

     PERCENT DISCREPANCY =          -0.00         PERCENT DISCREPANCY =           0.00






         TIME SUMMARY AT END OF TIME STEP    3 IN STRESS PERIOD    5
                    SECONDS     MINUTES      HOURS       DAYS        YEARS
                    -----------------------------------------------------------
   TIME STEP LENGTH  87667.      1461.1      24.352      1.0147     2.77799E-03
 STRESS PERIOD TIME 2.63000E+05  4383.3      73.056      3.0440     8.33397E-03
         TOTAL TIME 8.23939E+06 1.37323E+05  2288.7      95.363     0.26109    
1
 
 SOLVING FOR HEAD 
                                                   Max.-Head-Change                         Max.-Flux-Residual
  Residual-Control   Outer-Iter.   Inner-Iter.     Column Row Layer    Maximum-Head-Change  Column Row Layer    Maximum-Flux-Residual          L2-NORM 
          0                 1           2             5    8     1       0.3566537839E-01       5    8    1         0.1961170408E+01      0.4401962487E+01
          0                 2           2             5    8     1      -0.3471396754E-02       5    8    1        -0.1962349632E+00      0.4398995108E+00
          0                 3           2             5    8     1       0.2384040961E-03       5    8    1         0.1385040070E-01      0.3095421158E-01
          0                 4           1             5    8     1      -0.1144707387E-04       5    8    1        -0.6804668308E-03      0.1479141607E-02

    ------------------------------------------------
       NWT REQUIRED            4 OUTER ITERATIONS 
       AND A TOTAL OF          7 INNER ITERATIONS.
    ------------------------------------------------

 OUTPUT CONTROL FOR STRESS PERIOD    5   TIME STEP    4
    PRINT BUDGET
    SAVE BUDGET
 UBDSV1 SAVING "         STORAGE" ON UNIT 102 AT TIME STEP  4, STRESS PERIOD   5
 UBDSV2 SAVING "   CONSTANT HEAD" ON UNIT 102 AT TIME STEP  4, STRESS PERIOD   5
 UBDSV1 SAVING "FLOW RIGHT FACE " ON UNIT 102 AT TIME STEP  4, STRESS PERIOD   5
 UBDSV1 SAVING "FLOW FRONT FACE " ON UNIT 102 AT TIME STEP  4, STRESS PERIOD   5

  HEAD DEP BOUNDS   PERIOD    5   STEP     4
 BOUNDARY      1   LAYER   1   ROW    13   COL     1   RATE   -0.293807    
 BOUNDARY      2   LAYER   1   ROW    14   COL     9   RATE    0.285739    



 STREAM LISTING     PERIOD      5   STEP        4

 LAYER ROW COL. STREAM  RCH.  FLOW INTO     FLOW TO   FLOW OUT OF   OVRLND.     DIRECT     STREAM       STREAM     STREAM     STREAM   STREAMBED  STREAMBED
                SEG.NO.  NO.  STRM. RCH.    AQUIFER    STRM. RCH.    RUNOFF     PRECIP       ET          HEAD       DEPTH      WIDTH   CONDCTNC.   GRADIENT

   1    1    1     1     1    2.1000E+01  2.2591E-01   2.0774E+01  0.000E+00  0.000E+00  0.000E+00  1.09416E+03  1.115E+00  1.220E+01  5.490E-02  1.372E+00
   1    2    2     1     2    2.0774E+01  3.4916E-01   2.0425E+01  0.000E+00  0.000E+00  0.000E+00  1.08917E+03  1.110E+00  1.214E+01  8.495E-02  1.370E+00
   1    3    3     1     3    2.0425E+01  2.9709E-01   2.0128E+01  0.000E+00  0.000E+00  0.000E+00  1.08352E+03  1.105E+00  1.206E+01  7.238E-02  1.368E+00
   1    3    4     1     4    2.0128E+01  2.7299E-01   1.9855E+01  0.000E+00  0.000E+00  0.000E+00  1.07851E+03  1.100E+00  1.200E+01  6.659E-02  1.367E+00
   1    4    5     2     1    1.7855E+01  3.1056E-01   1.7544E+01  0.000E+00  0.000E+00  0.000E+00  1.07292E+03  9.816E-01  1.200E+01  7.800E-02  1.327E+00
   1    5    6     2     2    1.7544E+01  2.3834E-01   1.7306E+01  0.000E+00  0.000E+00  0.000E+00  1.06748E+03  9.724E-01  1.200E+01  6.000E-02  1.324E+00
   1    6    6     2     3    1.7306E+01  2.3786E-01   1.7068E+01  0.000E+00  0.000E+00  0.000E+00  1.06276E+03  9.644E-01  1.200E+01  6.000E-02  1.321E+00
   1    7    6     2     4    1.7068E+01  2.3738E-01   1.6831E+01  0.000E+00  0.000E+00  0.000E+00  1.05803E+03  9.564E-01  1.200E+01  6.000E-02  1.319E+00
   1    8    6     2     5    1.6831E+01  2.3690E-01   1.6594E+01  0.000E+00  0.000E+00  0.000E+00  1.05331E+03  9.483E-01  1.200E+01  6.000E-02  1.316E+00
   1    3    5     3     1    2.0000E+00  2.8252E-01   1.7175E+00  0.000E+00  0.000E+00  0.000E+00  1.07555E+03  1.909E+00  9.636E+00  7.227E-02  1.955E+00
   1    3    6     3     2    1.7175E+00  2.4905E-01   1.4684E+00  0.000E+00  0.000E+00  0.000E+00  1.07264E+03  1.727E+00  8.909E+00  6.682E-02  1.864E+00
   1    3    7     3     3    1.4684E+00  1.9718E-01   1.2712E+00  0.000E+00  0.000E+00  0.000E+00  1.06987E+03  1.555E+00  8.218E+00  5.547E-02  1.777E+00
   1    4    8     3     4    1.2712E+00  2.2567E-01   1.0456E+00  0.000E+00  0.000E+00  0.000E+00  1.06682E+03  1.364E+00  7.455E+00  6.709E-02  1.682E+00
   1    5    8     3     5    1.0456E+00  1.5790E-01   8.8768E-01  0.000E+00  0.000E+00  0.000E+00  1.06362E+03  1.164E+00  6.655E+00  4.991E-02  1.582E+00
   1    6    8     3     6    8.8768E-01  5.5980E-02   8.3170E-01  0.000E+00  0.000E+00  0.000E+00  1.06158E+03  1.036E+00  6.145E+00  1.844E-02  1.518E+00
   1    5   10     4     1    1.0000E+01  9.0919E-02   9.9091E+00  0.000E+00  0.000E+00  0.000E+00  1.07836E+03  6.368E-01  1.000E+01  2.500E-02  1.212E+00
   1    5    9     4     2    9.9091E+00  1.8158E-01   9.7275E+00  0.000E+00  0.000E+00  0.000E+00  1.07154E+03  6.315E-01  1.000E+01  5.000E-02  1.211E+00
   1    6    8     4     3    9.7275E+00  1.2689E-01   9.6006E+00  0.000E+00  0.000E+00  0.000E+00  1.06381E+03  6.256E-01  1.000E+01  3.500E-02  1.209E+00
   1    6    8     5     1    1.0432E+01  2.2686E-01   1.0205E+01  0.000E+00  0.000E+00  0.000E+00  1.05868E+03  6.790E-01  1.542E+01  6.166E-02  1.226E+00
   1    7    7     5     2    1.0205E+01  2.7894E-01   9.9265E+00  0.000E+00  0.000E+00  0.000E+00  1.05417E+03  6.732E-01  1.519E+01  7.594E-02  1.224E+00
   1    8    7     5     3    9.9265E+00  1.9221E-01   9.7343E+00  0.000E+00  0.000E+00  0.000E+00  1.04992E+03  6.676E-01  1.497E+01  5.241E-02  1.223E+00
   1    8    6     5     4    9.7343E+00  1.3577E-01   9.5985E+00  0.000E+00  0.000E+00  0.000E+00  1.04691E+03  6.637E-01  1.482E+01  3.706E-02  1.221E+00
   1    9    6     6     1    2.6191E+01  2.5512E-01   2.5936E+01  0.000E+00  0.000E+00  0.000E+00  1.04398E+03  1.252E+00  1.200E+01  6.000E-02  1.417E+00
   1   10    7     6     2    2.5936E+01  2.5468E-01   2.5681E+01  0.000E+00  0.000E+00  0.000E+00  1.03943E+03  1.245E+00  1.200E+01  6.000E-02  1.415E+00
   1   11    7     6     3    2.5681E+01  2.5423E-01   2.5427E+01  0.000E+00  0.000E+00  0.000E+00  1.03487E+03  1.237E+00  1.200E+01  6.000E-02  1.412E+00
   1   12    7     6     4    2.5427E+01  2.5379E-01   2.5173E+01  0.000E+00  0.000E+00  0.000E+00  1.03032E+03  1.230E+00  1.200E+01  6.000E-02  1.410E+00
   1   13    7     6     5    2.5173E+01  8.4171E-05   2.5173E+01  0.000E+00  0.000E+00  0.000E+00  1.02714E+03  1.226E+00  1.200E+01  2.400E-02  1.169E-03
   1   14    9     7     1    1.5000E+02  1.3355E+00   1.4866E+02  0.000E+00  0.000E+00  0.000E+00  1.03987E+03  2.288E+00  5.529E+01  5.593E-01  7.959E-01
   1   13    8     7     2    1.4866E+02  1.8265E+00   1.4684E+02  0.000E+00  0.000E+00  0.000E+00  1.03478E+03  2.279E+00  5.526E+01  6.148E-01  9.903E-01
   1   13    7     7     3    1.4684E+02  1.4287E+00   1.4541E+02  0.000E+00  0.000E+00  0.000E+00  1.02969E+03  2.271E+00  5.522E+01  5.585E-01  8.528E-01
   1   13    6     8     1    1.7058E+02  8.5855E-01   1.6972E+02  0.000E+00  0.000E+00  0.000E+00  1.02483E+03  2.953E+00  4.282E+01  4.364E-01  6.558E-01
   1   13    5     8     2    1.6972E+02  1.0371E-01   1.6962E+02  0.000E+00  0.000E+00  0.000E+00  1.01858E+03  2.950E+00  4.278E+01  4.359E-01  7.931E-02
   1   13    4     8     3    1.6962E+02 -2.9866E+00   1.7261E+02  0.000E+00  0.000E+00  0.000E+00  1.01233E+03  2.959E+00  4.291E+01  4.373E+00 -2.277E-01
   1   13    3     8     4    1.7261E+02 -4.0979E+00   1.7670E+02  0.000E+00  0.000E+00  0.000E+00  1.00611E+03  2.982E+00  4.324E+01  4.407E+00 -3.100E-01
   1   13    2     8     5    1.7670E+02 -3.0305E+00   1.7974E+02  0.000E+00  0.000E+00  0.000E+00  9.99880E+02  3.005E+00  4.357E+01  4.440E+00 -2.275E-01
   1   13    1     8     6    1.7974E+02 -2.2374E+00   1.8197E+02  0.000E+00  0.000E+00  0.000E+00  9.94897E+02  3.022E+00  4.381E+01  2.679E+00 -2.784E-01
   1    8    6     9     1    1.3683E-03  0.0000E+00   1.3683E-03  0.000E+00  0.000E+00  0.000E+00  1.07876E+03  1.089E-02  4.000E+00  0.000E+00  1.004E+00
   1    8    5     9     2    1.3683E-03  0.0000E+00   1.3683E-03  0.000E+00  0.000E+00  0.000E+00  1.07826E+03  1.089E-02  4.000E+00  0.000E+00  1.004E+00



 UBDSV3 SAVING "           GW ET" ON UNIT  61 AT TIME STEP  4, STRESS PERIOD   5
 UBDSV3 SAVING "    UZF RECHARGE" ON UNIT  61 AT TIME STEP  4, STRESS PERIOD   5
 UBDSV3 SAVING " SURFACE LEAKAGE" ON UNIT  61 AT TIME STEP  4, STRESS PERIOD   5
 UBDSV3 SAVING "       HORT+DUNN" ON UNIT  61 AT TIME STEP  4, STRESS PERIOD   5
 UBDSV3 SAVING "  STORAGE CHANGE" ON UNIT  61 AT TIME STEP  4, STRESS PERIOD   5


UNSATURATED ZONE PACKAGE VOLUMETRIC BUDGET FOR  TIME STEP     4 STRESS PERIOD    5
  ------------------------------------------------------------------------------



     CUMULATIVE VOLUMES      L**3       RATES FOR THIS TIME STEP      L**3/T
     ------------------                 ------------------------

           IN:                                      IN:
           ---                                      ---
        INFILTRATION =    48151387.4569          INFILTRATION =           0.8489

          OUT:                                     OUT:
          ----                                     ----
              UZF ET =     8204634.9489                UZF ET =           4.5675
        UZF RECHARGE =       73224.0000          UZF RECHARGE =       0.0000E+00

            IN - OUT =    39873528.5081              IN - OUT =          -3.7186

          STORAGE:                                 STORAGE:
          --------                                 --------
      STORAGE CHANGE =    39889064.8742        STORAGE CHANGE =          -3.7186

 PERCENT DISCREPANCY IS DIFFERENCE BETWEEN IN-OUT MINUS CHANGE IN STORAGE
 DIVIDED BY THE AVERAGE OF IN AND OUT TIMES 100

 PERCENT DISCREPANCY =          -0.01     PERCENT DISCREPANCY =           0.00






 

        AG WELLS          PERIOD    5   STEP   4
 AG WELL      1   LAYER   1   ROW     6   COL     4   RATE   -1.140029E-04
 AG WELL      2   LAYER   1   ROW     6   COL     5   RATE   -1.140029E-04
 AG WELL      3   LAYER   1   ROW     7   COL     4   RATE   -1.140029E-04
 AG WELL      4   LAYER   1   ROW     7   COL     5   RATE   -1.140029E-04
 AG WELL      5   LAYER   1   ROW     8   COL     4   RATE   -1.140029E-04
 AG WELL      6   LAYER   1   ROW     8   COL     5   RATE   -1.140029E-04
 
 

   DIVERSION SEGMENTS     PERIOD    5   STEP   4
 SEGMENT      9   RATE    1.368256E-03
 
 

        SW IRRIGATION     PERIOD    5   STEP   4
 SEGMENT      9   ROW     6   COL     4   RATE    1.140421E-04
 SEGMENT      9   ROW     6   COL     5   RATE    1.140421E-04
 SEGMENT      9   ROW     7   COL     4   RATE    1.140421E-04
 SEGMENT      9   ROW     7   COL     5   RATE    1.140421E-04
 SEGMENT      9   ROW     8   COL     4   RATE    1.140421E-04
 SEGMENT      9   ROW     8   COL     5   RATE    1.140421E-04
 
 

        GW IRRIGATION     PERIOD    5   STEP   4
 AG WELL      1   ROW     6   COL     4   RATE    1.140029E-04
 AG WELL      2   ROW     6   COL     5   RATE    1.140029E-04
 AG WELL      3   ROW     7   COL     4   RATE    1.140029E-04
 AG WELL      4   ROW     7   COL     5   RATE    1.140029E-04
 AG WELL      5   ROW     8   COL     4   RATE    1.140029E-04
 AG WELL      6   ROW     8   COL     5   RATE    1.140029E-04
 
1
  VOLUMETRIC BUDGET FOR AGRICULTURAL FIELDS AT  END OF TIME STEP    4, STRESS PERIOD   5
  ------------------------------------------------------------------------------

     CUMULATIVE VOLUMES      L**3       RATES FOR THIS TIME STEP      L**3/T
     ------------------                 ------------------------

           IN:                                      IN:
           ---                                      ---
           AG WELLS      =    39639268.0000             AG WELLS      =       6.8402E-04
      DIVERSION SEGMENTS =     1455078.5000        DIVERSION SEGMENTS =       1.3683E-03
           GW IRRIGATION =           0.0000             GW IRRIGATION =           0.0000
           SW IRRIGATION =           0.0000             SW IRRIGATION =           0.0000
        SYSTEM LOSSES GW =           0.0000          SYSTEM LOSSES GW =           0.0000
        SYSTEM LOSSES SW =           0.0000          SYSTEM LOSSES SW =           0.0000

                TOTAL IN =    41094348.0000                  TOTAL IN =       2.0523E-03

          OUT:                                     OUT:
          ----                                     ----
           AG WELLS      =           0.0000             AG WELLS      =           0.0000
      DIVERSION SEGMENTS =           0.0000        DIVERSION SEGMENTS =           0.0000
           GW IRRIGATION =    39639268.0000             GW IRRIGATION =       6.8402E-04
           SW IRRIGATION =     1455107.5000             SW IRRIGATION =       1.3683E-03
        SYSTEM LOSSES GW =           0.0000          SYSTEM LOSSES GW =           0.0000
        SYSTEM LOSSES SW =           0.0000          SYSTEM LOSSES SW =           0.0000

               TOTAL OUT =    41094376.0000                 TOTAL OUT =       2.0523E-03

                IN - OUT =         -28.0000                  IN - OUT =      -2.7241E-08

     PERCENT DISCREPANCY =          -0.00         PERCENT DISCREPANCY =          -0.00



1
  VOLUMETRIC BUDGET FOR ENTIRE MODEL AT END OF TIME STEP    4, STRESS PERIOD   5
  ------------------------------------------------------------------------------

     CUMULATIVE VOLUMES      L**3       RATES FOR THIS TIME STEP      L**3/T
     ------------------                 ------------------------

           IN:                                      IN:
           ---                                      ---
             STORAGE     =    47010140.0000               STORAGE     =           9.6488
       CONSTANT HEAD     =           0.0000         CONSTANT HEAD     =           0.0000
     HEAD DEP BOUNDS     =     2378927.5000       HEAD DEP BOUNDS     =           0.2857
      STREAM LEAKAGE     =    99858536.0000        STREAM LEAKAGE     =          11.3785
        UZF RECHARGE     =       73223.9531          UZF RECHARGE     =           0.0000
               GW ET     =           0.0000                 GW ET     =           0.0000
     SURFACE LEAKAGE     =           0.0000       SURFACE LEAKAGE     =           0.0000
           AG WELLS      =           0.0000             AG WELLS      =           0.0000

                TOTAL IN =   149320816.0000                  TOTAL IN =          21.3131

          OUT:                                     OUT:
          ----                                     ----
             STORAGE     =    20467290.0000               STORAGE     =           8.5983
       CONSTANT HEAD     =           0.0000         CONSTANT HEAD     =           0.0000
     HEAD DEP BOUNDS     =     2419731.7500       HEAD DEP BOUNDS     =           0.2938
      STREAM LEAKAGE     =    86759688.0000        STREAM LEAKAGE     =          12.3525
        UZF RECHARGE     =           0.0000          UZF RECHARGE     =           0.0000
               GW ET     =       38728.4375                 GW ET     =       6.7764E-02
     SURFACE LEAKAGE     =           0.0000       SURFACE LEAKAGE     =           0.0000
           AG WELLS      =    39639268.0000             AG WELLS      =       6.8402E-04

               TOTAL OUT =   149324704.0000                 TOTAL OUT =          21.3131

                IN - OUT =       -3888.0000                  IN - OUT =       9.5367E-06

     PERCENT DISCREPANCY =          -0.00         PERCENT DISCREPANCY =           0.00






         TIME SUMMARY AT END OF TIME STEP    4 IN STRESS PERIOD    5
                    SECONDS     MINUTES      HOURS       DAYS        YEARS
                    -----------------------------------------------------------
   TIME STEP LENGTH  87667.      1461.1      24.352      1.0147     2.77799E-03
 STRESS PERIOD TIME 3.50667E+05  5844.4      97.407      4.0586     1.11120E-02
         TOTAL TIME 8.32706E+06 1.38784E+05  2313.1      96.378     0.26387    
1
 
 SOLVING FOR HEAD 
                                                   Max.-Head-Change                         Max.-Flux-Residual
  Residual-Control   Outer-Iter.   Inner-Iter.     Column Row Layer    Maximum-Head-Change  Column Row Layer    Maximum-Flux-Residual          L2-NORM 
          0                 1           2             5    8     1       0.3373501180E-01       5    8    1         0.1853421673E+01      0.4188813367E+01
          0                 2           2             5    8     1      -0.3283618146E-02       5    8    1        -0.1854596248E+00      0.4186451230E+00
          0                 3           2             5    8     1       0.2256171279E-03       5    8    1         0.1309613106E-01      0.2947524086E-01
          0                 4           1             5    8     1      -0.1093826249E-04       5    8    1        -0.6496171457E-03      0.1422223643E-02

    ------------------------------------------------
       NWT REQUIRED            4 OUTER ITERATIONS 
       AND A TOTAL OF          7 INNER ITERATIONS.
    ------------------------------------------------

 NO OUTPUT CONTROL FOR STRESS PERIOD    5   TIME STEP    5
 
 SOLVING FOR HEAD 
                                                   Max.-Head-Change                         Max.-Flux-Residual
  Residual-Control   Outer-Iter.   Inner-Iter.     Column Row Layer    Maximum-Head-Change  Column Row Layer    Maximum-Flux-Residual          L2-NORM 
          0                 1           2             5    8     1       0.3193673681E-01       5    8    1         0.1753112865E+01      0.3990862631E+01
          0                 2           2             5    8     1      -0.3106617110E-02       5    8    1        -0.1753143342E+00      0.3987039647E+00
          0                 3           2             5    8     1       0.2115486826E-03       5    8    1         0.1227197985E-01      0.2787417476E-01
          0                 4           1             5    8     1      -0.8417722127E-05       5    8    1        -0.5019247919E-03      0.1137882513E-02

    ------------------------------------------------
       NWT REQUIRED            4 OUTER ITERATIONS 
       AND A TOTAL OF          7 INNER ITERATIONS.
    ------------------------------------------------

 OUTPUT CONTROL FOR STRESS PERIOD    5   TIME STEP    6
    PRINT BUDGET
    SAVE BUDGET
 UBDSV1 SAVING "         STORAGE" ON UNIT 102 AT TIME STEP  6, STRESS PERIOD   5
 UBDSV2 SAVING "   CONSTANT HEAD" ON UNIT 102 AT TIME STEP  6, STRESS PERIOD   5
 UBDSV1 SAVING "FLOW RIGHT FACE " ON UNIT 102 AT TIME STEP  6, STRESS PERIOD   5
 UBDSV1 SAVING "FLOW FRONT FACE " ON UNIT 102 AT TIME STEP  6, STRESS PERIOD   5

  HEAD DEP BOUNDS   PERIOD    5   STEP     6
 BOUNDARY      1   LAYER   1   ROW    13   COL     1   RATE   -0.293469    
 BOUNDARY      2   LAYER   1   ROW    14   COL     9   RATE    0.285740    



 STREAM LISTING     PERIOD      5   STEP        6

 LAYER ROW COL. STREAM  RCH.  FLOW INTO     FLOW TO   FLOW OUT OF   OVRLND.     DIRECT     STREAM       STREAM     STREAM     STREAM   STREAMBED  STREAMBED
                SEG.NO.  NO.  STRM. RCH.    AQUIFER    STRM. RCH.    RUNOFF     PRECIP       ET          HEAD       DEPTH      WIDTH   CONDCTNC.   GRADIENT

   1    1    1     1     1    2.1000E+01  2.2592E-01   2.0774E+01  0.000E+00  0.000E+00  0.000E+00  1.09416E+03  1.115E+00  1.220E+01  5.490E-02  1.372E+00
   1    2    2     1     2    2.0774E+01  3.4916E-01   2.0425E+01  0.000E+00  0.000E+00  0.000E+00  1.08917E+03  1.110E+00  1.214E+01  8.495E-02  1.370E+00
   1    3    3     1     3    2.0425E+01  2.9709E-01   2.0128E+01  0.000E+00  0.000E+00  0.000E+00  1.08352E+03  1.105E+00  1.206E+01  7.238E-02  1.368E+00
   1    3    4     1     4    2.0128E+01  2.7299E-01   1.9855E+01  0.000E+00  0.000E+00  0.000E+00  1.07851E+03  1.100E+00  1.200E+01  6.659E-02  1.367E+00
   1    4    5     2     1    1.7855E+01  3.1056E-01   1.7544E+01  0.000E+00  0.000E+00  0.000E+00  1.07292E+03  9.816E-01  1.200E+01  7.800E-02  1.327E+00
   1    5    6     2     2    1.7544E+01  2.3834E-01   1.7306E+01  0.000E+00  0.000E+00  0.000E+00  1.06748E+03  9.724E-01  1.200E+01  6.000E-02  1.324E+00
   1    6    6     2     3    1.7306E+01  2.3787E-01   1.7068E+01  0.000E+00  0.000E+00  0.000E+00  1.06276E+03  9.644E-01  1.200E+01  6.000E-02  1.321E+00
   1    7    6     2     4    1.7068E+01  2.3738E-01   1.6831E+01  0.000E+00  0.000E+00  0.000E+00  1.05803E+03  9.564E-01  1.200E+01  6.000E-02  1.319E+00
   1    8    6     2     5    1.6831E+01  2.3690E-01   1.6594E+01  0.000E+00  0.000E+00  0.000E+00  1.05331E+03  9.483E-01  1.200E+01  6.000E-02  1.316E+00
   1    3    5     3     1    2.0000E+00  2.8252E-01   1.7175E+00  0.000E+00  0.000E+00  0.000E+00  1.07555E+03  1.909E+00  9.636E+00  7.227E-02  1.955E+00
   1    3    6     3     2    1.7175E+00  2.4905E-01   1.4684E+00  0.000E+00  0.000E+00  0.000E+00  1.07264E+03  1.727E+00  8.909E+00  6.682E-02  1.864E+00
   1    3    7     3     3    1.4684E+00  1.9718E-01   1.2712E+00  0.000E+00  0.000E+00  0.000E+00  1.06987E+03  1.555E+00  8.218E+00  5.547E-02  1.777E+00
   1    4    8     3     4    1.2712E+00  2.2567E-01   1.0456E+00  0.000E+00  0.000E+00  0.000E+00  1.06682E+03  1.364E+00  7.455E+00  6.709E-02  1.682E+00
   1    5    8     3     5    1.0456E+00  1.5790E-01   8.8768E-01  0.000E+00  0.000E+00  0.000E+00  1.06362E+03  1.164E+00  6.655E+00  4.991E-02  1.582E+00
   1    6    8     3     6    8.8768E-01  5.5980E-02   8.3170E-01  0.000E+00  0.000E+00  0.000E+00  1.06158E+03  1.036E+00  6.145E+00  1.844E-02  1.518E+00
   1    5   10     4     1    1.0000E+01  9.0919E-02   9.9091E+00  0.000E+00  0.000E+00  0.000E+00  1.07836E+03  6.368E-01  1.000E+01  2.500E-02  1.212E+00
   1    5    9     4     2    9.9091E+00  1.8158E-01   9.7275E+00  0.000E+00  0.000E+00  0.000E+00  1.07154E+03  6.315E-01  1.000E+01  5.000E-02  1.211E+00
   1    6    8     4     3    9.7275E+00  1.2689E-01   9.6006E+00  0.000E+00  0.000E+00  0.000E+00  1.06381E+03  6.256E-01  1.000E+01  3.500E-02  1.209E+00
   1    6    8     5     1    1.0432E+01  2.2686E-01   1.0205E+01  0.000E+00  0.000E+00  0.000E+00  1.05868E+03  6.790E-01  1.542E+01  6.166E-02  1.226E+00
   1    7    7     5     2    1.0205E+01  2.7894E-01   9.9265E+00  0.000E+00  0.000E+00  0.000E+00  1.05417E+03  6.732E-01  1.519E+01  7.594E-02  1.224E+00
   1    8    7     5     3    9.9265E+00  1.9221E-01   9.7343E+00  0.000E+00  0.000E+00  0.000E+00  1.04992E+03  6.676E-01  1.497E+01  5.241E-02  1.223E+00
   1    8    6     5     4    9.7343E+00  1.3577E-01   9.5985E+00  0.000E+00  0.000E+00  0.000E+00  1.04691E+03  6.637E-01  1.482E+01  3.706E-02  1.221E+00
   1    9    6     6     1    2.6192E+01  2.5512E-01   2.5937E+01  0.000E+00  0.000E+00  0.000E+00  1.04398E+03  1.252E+00  1.200E+01  6.000E-02  1.417E+00
   1   10    7     6     2    2.5937E+01  2.5468E-01   2.5683E+01  0.000E+00  0.000E+00  0.000E+00  1.03943E+03  1.245E+00  1.200E+01  6.000E-02  1.415E+00
   1   11    7     6     3    2.5683E+01  2.5424E-01   2.5428E+01  0.000E+00  0.000E+00  0.000E+00  1.03487E+03  1.237E+00  1.200E+01  6.000E-02  1.412E+00
   1   12    7     6     4    2.5428E+01  2.5379E-01   2.5175E+01  0.000E+00  0.000E+00  0.000E+00  1.03032E+03  1.230E+00  1.200E+01  6.000E-02  1.410E+00
   1   13    7     6     5    2.5175E+01  6.6799E-05   2.5175E+01  0.000E+00  0.000E+00  0.000E+00  1.02714E+03  1.226E+00  1.200E+01  2.400E-02  9.278E-04
   1   14    9     7     1    1.5000E+02  1.3355E+00   1.4866E+02  0.000E+00  0.000E+00  0.000E+00  1.03987E+03  2.288E+00  5.529E+01  5.593E-01  7.960E-01
   1   13    8     7     2    1.4866E+02  1.8262E+00   1.4684E+02  0.000E+00  0.000E+00  0.000E+00  1.03478E+03  2.279E+00  5.526E+01  6.148E-01  9.902E-01
   1   13    7     7     3    1.4684E+02  1.4283E+00   1.4541E+02  0.000E+00  0.000E+00  0.000E+00  1.02969E+03  2.271E+00  5.522E+01  5.585E-01  8.525E-01
   1   13    6     8     1    1.7058E+02  8.5948E-01   1.6973E+02  0.000E+00  0.000E+00  0.000E+00  1.02483E+03  2.953E+00  4.282E+01  4.364E-01  6.565E-01
   1   13    5     8     2    1.6973E+02  1.0451E-01   1.6962E+02  0.000E+00  0.000E+00  0.000E+00  1.01858E+03  2.950E+00  4.278E+01  4.359E-01  7.992E-02
   1   13    4     8     3    1.6962E+02 -2.9283E+00   1.7255E+02  0.000E+00  0.000E+00  0.000E+00  1.01233E+03  2.959E+00  4.291E+01  4.373E+00 -2.232E-01
   1   13    3     8     4    1.7255E+02 -4.0402E+00   1.7659E+02  0.000E+00  0.000E+00  0.000E+00  1.00611E+03  2.982E+00  4.323E+01  4.406E+00 -3.057E-01
   1   13    2     8     5    1.7659E+02 -2.9686E+00   1.7956E+02  0.000E+00  0.000E+00  0.000E+00  9.99879E+02  3.004E+00  4.356E+01  4.439E+00 -2.229E-01
   1   13    1     8     6    1.7956E+02 -2.2159E+00   1.8177E+02  0.000E+00  0.000E+00  0.000E+00  9.94895E+02  3.020E+00  4.379E+01  2.678E+00 -2.758E-01
   1    8    6     9     1    1.1066E-07  0.0000E+00   1.1066E-07  0.000E+00  0.000E+00  0.000E+00  1.07875E+03  3.817E-05  4.000E+00  0.000E+00  1.000E+00
   1    8    5     9     2    1.1066E-07  0.0000E+00   1.1066E-07  0.000E+00  0.000E+00  0.000E+00  1.07825E+03  3.817E-05  4.000E+00  0.000E+00  1.000E+00



 UBDSV3 SAVING "           GW ET" ON UNIT  61 AT TIME STEP  6, STRESS PERIOD   5
 UBDSV3 SAVING "    UZF RECHARGE" ON UNIT  61 AT TIME STEP  6, STRESS PERIOD   5
 UBDSV3 SAVING " SURFACE LEAKAGE" ON UNIT  61 AT TIME STEP  6, STRESS PERIOD   5
 UBDSV3 SAVING "       HORT+DUNN" ON UNIT  61 AT TIME STEP  6, STRESS PERIOD   5
 UBDSV3 SAVING "  STORAGE CHANGE" ON UNIT  61 AT TIME STEP  6, STRESS PERIOD   5


UNSATURATED ZONE PACKAGE VOLUMETRIC BUDGET FOR  TIME STEP     6 STRESS PERIOD    5
  ------------------------------------------------------------------------------



     CUMULATIVE VOLUMES      L**3       RATES FOR THIS TIME STEP      L**3/T
     ------------------                 ------------------------

           IN:                                      IN:
           ---                                      ---
        INFILTRATION =    48300102.4100          INFILTRATION =           0.8475

          OUT:                                     OUT:
          ----                                     ----
              UZF ET =     9005498.1750                UZF ET =           4.5678
        UZF RECHARGE =       73224.0000          UZF RECHARGE =       0.0000E+00

            IN - OUT =    39221380.2350              IN - OUT =          -3.7203

          STORAGE:                                 STORAGE:
          --------                                 --------
      STORAGE CHANGE =    39236916.5884        STORAGE CHANGE =          -3.7203

 PERCENT DISCREPANCY IS DIFFERENCE BETWEEN IN-OUT MINUS CHANGE IN STORAGE
 DIVIDED BY THE AVERAGE OF IN AND OUT TIMES 100

 PERCENT DISCREPANCY =          -0.01     PERCENT DISCREPANCY =           0.00






 

        AG WELLS          PERIOD    5   STEP   6
 AG WELL      1   LAYER   1   ROW     6   COL     4   RATE     0.00000    
 AG WELL      2   LAYER   1   ROW     6   COL     5   RATE     0.00000    
 AG WELL      3   LAYER   1   ROW     7   COL     4   RATE     0.00000    
 AG WELL      4   LAYER   1   ROW     7   COL     5   RATE     0.00000    
 AG WELL      5   LAYER   1   ROW     8   COL     4   RATE     0.00000    
 AG WELL      6   LAYER   1   ROW     8   COL     5   RATE     0.00000    
 
 

   DIVERSION SEGMENTS     PERIOD    5   STEP   6
 SEGMENT      9   RATE    1.106598E-07
 
 

        SW IRRIGATION     PERIOD    5   STEP   6
 SEGMENT      9   ROW     6   COL     4   RATE    1.844368E-08
 SEGMENT      9   ROW     6   COL     5   RATE    1.844368E-08
 SEGMENT      9   ROW     7   COL     4   RATE    1.844368E-08
 SEGMENT      9   ROW     7   COL     5   RATE    1.844368E-08
 SEGMENT      9   ROW     8   COL     4   RATE    1.844368E-08
 SEGMENT      9   ROW     8   COL     5   RATE    1.844368E-08
 
 

        GW IRRIGATION     PERIOD    5   STEP   6
 AG WELL      1   ROW     6   COL     4   RATE     0.00000    
 AG WELL      2   ROW     6   COL     5   RATE     0.00000    
 AG WELL      3   ROW     7   COL     4   RATE     0.00000    
 AG WELL      4   ROW     7   COL     5   RATE     0.00000    
 AG WELL      5   ROW     8   COL     4   RATE     0.00000    
 AG WELL      6   ROW     8   COL     5   RATE     0.00000    
 
1
  VOLUMETRIC BUDGET FOR AGRICULTURAL FIELDS AT  END OF TIME STEP    6, STRESS PERIOD   5
  ------------------------------------------------------------------------------

     CUMULATIVE VOLUMES      L**3       RATES FOR THIS TIME STEP      L**3/T
     ------------------                 ------------------------

           IN:                                      IN:
           ---                                      ---
           AG WELLS      =    39639328.0000             AG WELLS      =           0.0000
      DIVERSION SEGMENTS =     1455198.5000        DIVERSION SEGMENTS =       1.1066E-07
           GW IRRIGATION =           0.0000             GW IRRIGATION =           0.0000
           SW IRRIGATION =           0.0000             SW IRRIGATION =           0.0000
        SYSTEM LOSSES GW =           0.0000          SYSTEM LOSSES GW =           0.0000
        SYSTEM LOSSES SW =           0.0000          SYSTEM LOSSES SW =           0.0000

                TOTAL IN =    41094528.0000                  TOTAL IN =       1.1066E-07

          OUT:                                     OUT:
          ----                                     ----
           AG WELLS      =           0.0000             AG WELLS      =           0.0000
      DIVERSION SEGMENTS =           0.0000        DIVERSION SEGMENTS =           0.0000
           GW IRRIGATION =    39639328.0000             GW IRRIGATION =           0.0000
           SW IRRIGATION =     1455227.5000             SW IRRIGATION =       1.1066E-07
        SYSTEM LOSSES GW =           0.0000          SYSTEM LOSSES GW =           0.0000
        SYSTEM LOSSES SW =           0.0000          SYSTEM LOSSES SW =           0.0000

               TOTAL OUT =    41094556.0000                 TOTAL OUT =       1.1066E-07

                IN - OUT =         -28.0000                  IN - OUT =      -2.2098E-12

     PERCENT DISCREPANCY =          -0.00         PERCENT DISCREPANCY =          -0.00



1
  VOLUMETRIC BUDGET FOR ENTIRE MODEL AT END OF TIME STEP    6, STRESS PERIOD   5
  ------------------------------------------------------------------------------

     CUMULATIVE VOLUMES      L**3       RATES FOR THIS TIME STEP      L**3/T
     ------------------                 ------------------------

           IN:                                      IN:
           ---                                      ---
             STORAGE     =    48591508.0000               STORAGE     =           8.8178
       CONSTANT HEAD     =           0.0000         CONSTANT HEAD     =           0.0000
     HEAD DEP BOUNDS     =     2429027.2500       HEAD DEP BOUNDS     =           0.2857
      STREAM LEAKAGE     =   101853704.0000        STREAM LEAKAGE     =          11.3796
        UZF RECHARGE     =       73223.9531          UZF RECHARGE     =           0.0000
               GW ET     =           0.0000                 GW ET     =           0.0000
     SURFACE LEAKAGE     =           0.0000       SURFACE LEAKAGE     =           0.0000
           AG WELLS      =           0.0000             AG WELLS      =           0.0000

                TOTAL IN =   152947456.0000                  TOTAL IN =          20.4831

          OUT:                                     OUT:
          ----                                     ----
             STORAGE     =    21895824.0000               STORAGE     =           8.0023
       CONSTANT HEAD     =           0.0000         CONSTANT HEAD     =           0.0000
     HEAD DEP BOUNDS     =     2471201.2500       HEAD DEP BOUNDS     =           0.2935
      STREAM LEAKAGE     =    88898856.0000        STREAM LEAKAGE     =          12.1530
        UZF RECHARGE     =           0.0000          UZF RECHARGE     =           0.0000
               GW ET     =       46130.2148                 GW ET     =       3.4314E-02
     SURFACE LEAKAGE     =           0.0000       SURFACE LEAKAGE     =           0.0000
           AG WELLS      =    39639328.0000             AG WELLS      =           0.0000

               TOTAL OUT =   152951328.0000                 TOTAL OUT =          20.4831

                IN - OUT =       -3872.0000                  IN - OUT =       3.8147E-06

     PERCENT DISCREPANCY =          -0.00         PERCENT DISCREPANCY =           0.00






         TIME SUMMARY AT END OF TIME STEP    6 IN STRESS PERIOD    5
                    SECONDS     MINUTES      HOURS       DAYS        YEARS
                    -----------------------------------------------------------
   TIME STEP LENGTH  87667.      1461.1      24.352      1.0147     2.77799E-03
 STRESS PERIOD TIME 5.26000E+05  8766.7      146.11      6.0880     1.66679E-02
         TOTAL TIME 8.50239E+06 1.41707E+05  2361.8      98.407     0.26942    
1
 
 SOLVING FOR HEAD 
                                                   Max.-Head-Change                         Max.-Flux-Residual
  Residual-Control   Outer-Iter.   Inner-Iter.     Column Row Layer    Maximum-Head-Change  Column Row Layer    Maximum-Flux-Residual          L2-NORM 
          0                 1           2             5    8     1       0.3026020355E-01       5    8    1         0.1659657135E+01      0.3806823288E+01
          0                 2           2             5    8     1      -0.2943531399E-02       5    8    1        -0.1659684231E+00      0.3800921819E+00
          0                 3           2             5    8     1       0.2004432004E-03       5    8    1         0.1161776917E-01      0.2657678665E-01
          0                 4           1             5    8     1      -0.7975824635E-05       5    8    1        -0.4751675372E-03      0.1085205186E-02

    ------------------------------------------------
       NWT REQUIRED            4 OUTER ITERATIONS 
       AND A TOTAL OF          7 INNER ITERATIONS.
    ------------------------------------------------

 OUTPUT CONTROL FOR STRESS PERIOD    5   TIME STEP    7
    PRINT BUDGET
    SAVE BUDGET
 UBDSV1 SAVING "         STORAGE" ON UNIT 102 AT TIME STEP  7, STRESS PERIOD   5
 UBDSV2 SAVING "   CONSTANT HEAD" ON UNIT 102 AT TIME STEP  7, STRESS PERIOD   5
 UBDSV1 SAVING "FLOW RIGHT FACE " ON UNIT 102 AT TIME STEP  7, STRESS PERIOD   5
 UBDSV1 SAVING "FLOW FRONT FACE " ON UNIT 102 AT TIME STEP  7, STRESS PERIOD   5

  HEAD DEP BOUNDS   PERIOD    5   STEP     7
 BOUNDARY      1   LAYER   1   ROW    13   COL     1   RATE   -0.293309    
 BOUNDARY      2   LAYER   1   ROW    14   COL     9   RATE    0.285741    



 STREAM LISTING     PERIOD      5   STEP        7

 LAYER ROW COL. STREAM  RCH.  FLOW INTO     FLOW TO   FLOW OUT OF   OVRLND.     DIRECT     STREAM       STREAM     STREAM     STREAM   STREAMBED  STREAMBED
                SEG.NO.  NO.  STRM. RCH.    AQUIFER    STRM. RCH.    RUNOFF     PRECIP       ET          HEAD       DEPTH      WIDTH   CONDCTNC.   GRADIENT

   1    1    1     1     1    2.1000E+01  2.2592E-01   2.0774E+01  0.000E+00  0.000E+00  0.000E+00  1.09416E+03  1.115E+00  1.220E+01  5.490E-02  1.372E+00
   1    2    2     1     2    2.0774E+01  3.4916E-01   2.0425E+01  0.000E+00  0.000E+00  0.000E+00  1.08917E+03  1.110E+00  1.214E+01  8.495E-02  1.370E+00
   1    3    3     1     3    2.0425E+01  2.9709E-01   2.0128E+01  0.000E+00  0.000E+00  0.000E+00  1.08352E+03  1.105E+00  1.206E+01  7.238E-02  1.368E+00
   1    3    4     1     4    2.0128E+01  2.7299E-01   1.9855E+01  0.000E+00  0.000E+00  0.000E+00  1.07851E+03  1.100E+00  1.200E+01  6.659E-02  1.367E+00
   1    4    5     2     1    1.7855E+01  3.1056E-01   1.7544E+01  0.000E+00  0.000E+00  0.000E+00  1.07292E+03  9.816E-01  1.200E+01  7.800E-02  1.327E+00
   1    5    6     2     2    1.7544E+01  2.3834E-01   1.7306E+01  0.000E+00  0.000E+00  0.000E+00  1.06748E+03  9.724E-01  1.200E+01  6.000E-02  1.324E+00
   1    6    6     2     3    1.7306E+01  2.3787E-01   1.7068E+01  0.000E+00  0.000E+00  0.000E+00  1.06276E+03  9.644E-01  1.200E+01  6.000E-02  1.321E+00
   1    7    6     2     4    1.7068E+01  2.3738E-01   1.6831E+01  0.000E+00  0.000E+00  0.000E+00  1.05803E+03  9.564E-01  1.200E+01  6.000E-02  1.319E+00
   1    8    6     2     5    1.6831E+01  2.3690E-01   1.6594E+01  0.000E+00  0.000E+00  0.000E+00  1.05331E+03  9.483E-01  1.200E+01  6.000E-02  1.316E+00
   1    3    5     3     1    2.0000E+00  2.8252E-01   1.7175E+00  0.000E+00  0.000E+00  0.000E+00  1.07555E+03  1.909E+00  9.636E+00  7.227E-02  1.955E+00
   1    3    6     3     2    1.7175E+00  2.4905E-01   1.4684E+00  0.000E+00  0.000E+00  0.000E+00  1.07264E+03  1.727E+00  8.909E+00  6.682E-02  1.864E+00
   1    3    7     3     3    1.4684E+00  1.9718E-01   1.2712E+00  0.000E+00  0.000E+00  0.000E+00  1.06987E+03  1.555E+00  8.218E+00  5.547E-02  1.777E+00
   1    4    8     3     4    1.2712E+00  2.2567E-01   1.0456E+00  0.000E+00  0.000E+00  0.000E+00  1.06682E+03  1.364E+00  7.455E+00  6.709E-02  1.682E+00
   1    5    8     3     5    1.0456E+00  1.5790E-01   8.8768E-01  0.000E+00  0.000E+00  0.000E+00  1.06362E+03  1.164E+00  6.655E+00  4.991E-02  1.582E+00
   1    6    8     3     6    8.8768E-01  5.5980E-02   8.3170E-01  0.000E+00  0.000E+00  0.000E+00  1.06158E+03  1.036E+00  6.145E+00  1.844E-02  1.518E+00
   1    5   10     4     1    1.0000E+01  9.0919E-02   9.9091E+00  0.000E+00  0.000E+00  0.000E+00  1.07836E+03  6.368E-01  1.000E+01  2.500E-02  1.212E+00
   1    5    9     4     2    9.9091E+00  1.8158E-01   9.7275E+00  0.000E+00  0.000E+00  0.000E+00  1.07154E+03  6.315E-01  1.000E+01  5.000E-02  1.211E+00
   1    6    8     4     3    9.7275E+00  1.2689E-01   9.6006E+00  0.000E+00  0.000E+00  0.000E+00  1.06381E+03  6.256E-01  1.000E+01  3.500E-02  1.209E+00
   1    6    8     5     1    1.0432E+01  2.2686E-01   1.0205E+01  0.000E+00  0.000E+00  0.000E+00  1.05868E+03  6.790E-01  1.542E+01  6.166E-02  1.226E+00
   1    7    7     5     2    1.0205E+01  2.7894E-01   9.9265E+00  0.000E+00  0.000E+00  0.000E+00  1.05417E+03  6.732E-01  1.519E+01  7.594E-02  1.224E+00
   1    8    7     5     3    9.9265E+00  1.9221E-01   9.7343E+00  0.000E+00  0.000E+00  0.000E+00  1.04992E+03  6.676E-01  1.497E+01  5.241E-02  1.223E+00
   1    8    6     5     4    9.7343E+00  1.3577E-01   9.5985E+00  0.000E+00  0.000E+00  0.000E+00  1.04691E+03  6.637E-01  1.482E+01  3.706E-02  1.221E+00
   1    9    6     6     1    2.6192E+01  2.5512E-01   2.5937E+01  0.000E+00  0.000E+00  0.000E+00  1.04398E+03  1.252E+00  1.200E+01  6.000E-02  1.417E+00
   1   10    7     6     2    2.5937E+01  2.5468E-01   2.5683E+01  0.000E+00  0.000E+00  0.000E+00  1.03943E+03  1.245E+00  1.200E+01  6.000E-02  1.415E+00
   1   11    7     6     3    2.5683E+01  2.5424E-01   2.5428E+01  0.000E+00  0.000E+00  0.000E+00  1.03487E+03  1.237E+00  1.200E+01  6.000E-02  1.412E+00
   1   12    7     6     4    2.5428E+01  2.5379E-01   2.5175E+01  0.000E+00  0.000E+00  0.000E+00  1.03032E+03  1.230E+00  1.200E+01  6.000E-02  1.410E+00
   1   13    7     6     5    2.5175E+01  5.8356E-05   2.5175E+01  0.000E+00  0.000E+00  0.000E+00  1.02714E+03  1.226E+00  1.200E+01  2.400E-02  8.105E-04
   1   14    9     7     1    1.5000E+02  1.3356E+00   1.4866E+02  0.000E+00  0.000E+00  0.000E+00  1.03987E+03  2.288E+00  5.529E+01  5.593E-01  7.960E-01
   1   13    8     7     2    1.4866E+02  1.8261E+00   1.4684E+02  0.000E+00  0.000E+00  0.000E+00  1.03478E+03  2.279E+00  5.526E+01  6.148E-01  9.901E-01
   1   13    7     7     3    1.4684E+02  1.4281E+00   1.4541E+02  0.000E+00  0.000E+00  0.000E+00  1.02969E+03  2.271E+00  5.522E+01  5.585E-01  8.524E-01
   1   13    6     8     1    1.7058E+02  8.5991E-01   1.6972E+02  0.000E+00  0.000E+00  0.000E+00  1.02483E+03  2.953E+00  4.282E+01  4.364E-01  6.569E-01
   1   13    5     8     2    1.6972E+02  1.0492E-01   1.6962E+02  0.000E+00  0.000E+00  0.000E+00  1.01858E+03  2.950E+00  4.278E+01  4.359E-01  8.023E-02
   1   13    4     8     3    1.6962E+02 -2.9037E+00   1.7252E+02  0.000E+00  0.000E+00  0.000E+00  1.01233E+03  2.959E+00  4.291E+01  4.372E+00 -2.214E-01
   1   13    3     8     4    1.7252E+02 -4.0155E+00   1.7654E+02  0.000E+00  0.000E+00  0.000E+00  1.00611E+03  2.981E+00  4.323E+01  4.405E+00 -3.038E-01
   1   13    2     8     5    1.7654E+02 -2.9411E+00   1.7948E+02  0.000E+00  0.000E+00  0.000E+00  9.99879E+02  3.004E+00  4.355E+01  4.438E+00 -2.209E-01
   1   13    1     8     6    1.7948E+02 -2.2056E+00   1.8169E+02  0.000E+00  0.000E+00  0.000E+00  9.94895E+02  3.020E+00  4.379E+01  2.677E+00 -2.746E-01
   1    8    6     9     1    3.3198E-07  0.0000E+00   3.3198E-07  0.000E+00  0.000E+00  0.000E+00  1.07875E+03  7.379E-05  4.000E+00  0.000E+00  1.000E+00
   1    8    5     9     2    3.3198E-07  0.0000E+00   3.3198E-07  0.000E+00  0.000E+00  0.000E+00  1.07825E+03  7.379E-05  4.000E+00  0.000E+00  1.000E+00



 UBDSV3 SAVING "           GW ET" ON UNIT  61 AT TIME STEP  7, STRESS PERIOD   5
 UBDSV3 SAVING "    UZF RECHARGE" ON UNIT  61 AT TIME STEP  7, STRESS PERIOD   5
 UBDSV3 SAVING " SURFACE LEAKAGE" ON UNIT  61 AT TIME STEP  7, STRESS PERIOD   5
 UBDSV3 SAVING "       HORT+DUNN" ON UNIT  61 AT TIME STEP  7, STRESS PERIOD   5
 UBDSV3 SAVING "  STORAGE CHANGE" ON UNIT  61 AT TIME STEP  7, STRESS PERIOD   5


UNSATURATED ZONE PACKAGE VOLUMETRIC BUDGET FOR  TIME STEP     7 STRESS PERIOD    5
  ------------------------------------------------------------------------------



     CUMULATIVE VOLUMES      L**3       RATES FOR THIS TIME STEP      L**3/T
     ------------------                 ------------------------

           IN:                                      IN:
           ---                                      ---
        INFILTRATION =    48374399.9348          INFILTRATION =           0.8475

          OUT:                                     OUT:
          ----                                     ----
              UZF ET =     9405915.6552                UZF ET =           4.5675
        UZF RECHARGE =       73224.0000          UZF RECHARGE =       0.0000E+00

            IN - OUT =    38895260.2796              IN - OUT =          -3.7200

          STORAGE:                                 STORAGE:
          --------                                 --------
      STORAGE CHANGE =    38910796.6197        STORAGE CHANGE =          -3.7200

 PERCENT DISCREPANCY IS DIFFERENCE BETWEEN IN-OUT MINUS CHANGE IN STORAGE
 DIVIDED BY THE AVERAGE OF IN AND OUT TIMES 100

 PERCENT DISCREPANCY =          -0.01     PERCENT DISCREPANCY =           0.00






 

        AG WELLS          PERIOD    5   STEP   7
 AG WELL      1   LAYER   1   ROW     6   COL     4   RATE   -1.844331E-08
 AG WELL      2   LAYER   1   ROW     6   COL     5   RATE   -1.844331E-08
 AG WELL      3   LAYER   1   ROW     7   COL     4   RATE   -1.844331E-08
 AG WELL      4   LAYER   1   ROW     7   COL     5   RATE   -1.844331E-08
 AG WELL      5   LAYER   1   ROW     8   COL     4   RATE   -1.844331E-08
 AG WELL      6   LAYER   1   ROW     8   COL     5   RATE   -1.844331E-08
 
 

   DIVERSION SEGMENTS     PERIOD    5   STEP   7
 SEGMENT      9   RATE    3.319795E-07
 
 

        SW IRRIGATION     PERIOD    5   STEP   7
 SEGMENT      9   ROW     6   COL     4   RATE    3.688735E-08
 SEGMENT      9   ROW     6   COL     5   RATE    3.688735E-08
 SEGMENT      9   ROW     7   COL     4   RATE    3.688735E-08
 SEGMENT      9   ROW     7   COL     5   RATE    3.688735E-08
 SEGMENT      9   ROW     8   COL     4   RATE    3.688735E-08
 SEGMENT      9   ROW     8   COL     5   RATE    3.688735E-08
 
 

        GW IRRIGATION     PERIOD    5   STEP   7
 AG WELL      1   ROW     6   COL     4   RATE    1.844331E-08
 AG WELL      2   ROW     6   COL     5   RATE    1.844331E-08
 AG WELL      3   ROW     7   COL     4   RATE    1.844331E-08
 AG WELL      4   ROW     7   COL     5   RATE    1.844331E-08
 AG WELL      5   ROW     8   COL     4   RATE    1.844331E-08
 AG WELL      6   ROW     8   COL     5   RATE    1.844331E-08
 
1
  VOLUMETRIC BUDGET FOR AGRICULTURAL FIELDS AT  END OF TIME STEP    7, STRESS PERIOD   5
  ------------------------------------------------------------------------------

     CUMULATIVE VOLUMES      L**3       RATES FOR THIS TIME STEP      L**3/T
     ------------------                 ------------------------

           IN:                                      IN:
           ---                                      ---
           AG WELLS      =    39639328.0000             AG WELLS      =       1.1066E-07
      DIVERSION SEGMENTS =     1455198.5000        DIVERSION SEGMENTS =       3.3198E-07
           GW IRRIGATION =           0.0000             GW IRRIGATION =           0.0000
           SW IRRIGATION =           0.0000             SW IRRIGATION =           0.0000
        SYSTEM LOSSES GW =           0.0000          SYSTEM LOSSES GW =           0.0000
        SYSTEM LOSSES SW =           0.0000          SYSTEM LOSSES SW =           0.0000

                TOTAL IN =    41094528.0000                  TOTAL IN =       4.4264E-07

          OUT:                                     OUT:
          ----                                     ----
           AG WELLS      =           0.0000             AG WELLS      =           0.0000
      DIVERSION SEGMENTS =           0.0000        DIVERSION SEGMENTS =           0.0000
           GW IRRIGATION =    39639328.0000             GW IRRIGATION =       1.1066E-07
           SW IRRIGATION =     1455227.5000             SW IRRIGATION =       3.3199E-07
        SYSTEM LOSSES GW =           0.0000          SYSTEM LOSSES GW =           0.0000
        SYSTEM LOSSES SW =           0.0000          SYSTEM LOSSES SW =           0.0000

               TOTAL OUT =    41094556.0000                 TOTAL OUT =       4.4265E-07

                IN - OUT =         -28.0000                  IN - OUT =      -6.5938E-12

     PERCENT DISCREPANCY =          -0.00         PERCENT DISCREPANCY =          -0.00



1
  VOLUMETRIC BUDGET FOR ENTIRE MODEL AT END OF TIME STEP    7, STRESS PERIOD   5
  ------------------------------------------------------------------------------

     CUMULATIVE VOLUMES      L**3       RATES FOR THIS TIME STEP      L**3/T
     ------------------                 ------------------------

           IN:                                      IN:
           ---                                      ---
             STORAGE     =    49332176.0000               STORAGE     =           8.4487
       CONSTANT HEAD     =           0.0000         CONSTANT HEAD     =           0.0000
     HEAD DEP BOUNDS     =     2454077.2500       HEAD DEP BOUNDS     =           0.2857
      STREAM LEAKAGE     =   102851360.0000        STREAM LEAKAGE     =          11.3801
        UZF RECHARGE     =       73223.9531          UZF RECHARGE     =           0.0000
               GW ET     =           0.0000                 GW ET     =           0.0000
     SURFACE LEAKAGE     =           0.0000       SURFACE LEAKAGE     =           0.0000
           AG WELLS      =           0.0000             AG WELLS      =           0.0000

                TOTAL IN =   154710832.0000                  TOTAL IN =          20.1146

          OUT:                                     OUT:
          ----                                     ----
             STORAGE     =    22573754.0000               STORAGE     =           7.7330
       CONSTANT HEAD     =           0.0000         CONSTANT HEAD     =           0.0000
     HEAD DEP BOUNDS     =     2496914.7500       HEAD DEP BOUNDS     =           0.2933
      STREAM LEAKAGE     =    89956640.0000        STREAM LEAKAGE     =          12.0659
        UZF RECHARGE     =           0.0000          UZF RECHARGE     =           0.0000
               GW ET     =       48082.3398                 GW ET     =       2.2268E-02
     SURFACE LEAKAGE     =           0.0000       SURFACE LEAKAGE     =           0.0000
           AG WELLS      =    39639328.0000             AG WELLS      =       1.1066E-07

               TOTAL OUT =   154714720.0000                 TOTAL OUT =          20.1146

                IN - OUT =       -3888.0000                  IN - OUT =           0.0000

     PERCENT DISCREPANCY =          -0.00         PERCENT DISCREPANCY =           0.00






         TIME SUMMARY AT END OF TIME STEP    7 IN STRESS PERIOD    5
                    SECONDS     MINUTES      HOURS       DAYS        YEARS
                    -----------------------------------------------------------
   TIME STEP LENGTH  87667.      1461.1      24.352      1.0147     2.77799E-03
 STRESS PERIOD TIME 6.13667E+05  10228.      170.46      7.1026     1.94459E-02
         TOTAL TIME 8.59006E+06 1.43168E+05  2386.1      99.422     0.27220    
1
 
 SOLVING FOR HEAD 
                                                   Max.-Head-Change                         Max.-Flux-Residual
  Residual-Control   Outer-Iter.   Inner-Iter.     Column Row Layer    Maximum-Head-Change  Column Row Layer    Maximum-Flux-Residual          L2-NORM 
          0                 1           2             5    8     1       0.2869607369E-01       5    8    1         0.1572525055E+01      0.3635615698E+01
          0                 2           2             5    8     1      -0.2791380539E-02       5    8    1        -0.1572549452E+00      0.3632646101E+00
          0                 3           2             5    8     1       0.1900830878E-03       5    8    1         0.1100787103E-01      0.2540137750E-01
          0                 4           1             5    8     1      -0.7563957256E-05       5    8    1        -0.4502442516E-03      0.1037274109E-02

    ------------------------------------------------
       NWT REQUIRED            4 OUTER ITERATIONS 
       AND A TOTAL OF          7 INNER ITERATIONS.
    ------------------------------------------------

 OUTPUT CONTROL FOR STRESS PERIOD    5   TIME STEP    8
    PRINT BUDGET
    SAVE BUDGET
 UBDSV1 SAVING "         STORAGE" ON UNIT 102 AT TIME STEP  8, STRESS PERIOD   5
 UBDSV2 SAVING "   CONSTANT HEAD" ON UNIT 102 AT TIME STEP  8, STRESS PERIOD   5
 UBDSV1 SAVING "FLOW RIGHT FACE " ON UNIT 102 AT TIME STEP  8, STRESS PERIOD   5
 UBDSV1 SAVING "FLOW FRONT FACE " ON UNIT 102 AT TIME STEP  8, STRESS PERIOD   5

  HEAD DEP BOUNDS   PERIOD    5   STEP     8
 BOUNDARY      1   LAYER   1   ROW    13   COL     1   RATE   -0.293156    
 BOUNDARY      2   LAYER   1   ROW    14   COL     9   RATE    0.285742    



 STREAM LISTING     PERIOD      5   STEP        8

 LAYER ROW COL. STREAM  RCH.  FLOW INTO     FLOW TO   FLOW OUT OF   OVRLND.     DIRECT     STREAM       STREAM     STREAM     STREAM   STREAMBED  STREAMBED
                SEG.NO.  NO.  STRM. RCH.    AQUIFER    STRM. RCH.    RUNOFF     PRECIP       ET          HEAD       DEPTH      WIDTH   CONDCTNC.   GRADIENT

   1    1    1     1     1    2.1000E+01  2.2592E-01   2.0774E+01  0.000E+00  0.000E+00  0.000E+00  1.09416E+03  1.115E+00  1.220E+01  5.490E-02  1.372E+00
   1    2    2     1     2    2.0774E+01  3.4916E-01   2.0425E+01  0.000E+00  0.000E+00  0.000E+00  1.08917E+03  1.110E+00  1.214E+01  8.495E-02  1.370E+00
   1    3    3     1     3    2.0425E+01  2.9709E-01   2.0128E+01  0.000E+00  0.000E+00  0.000E+00  1.08352E+03  1.105E+00  1.206E+01  7.238E-02  1.368E+00
   1    3    4     1     4    2.0128E+01  2.7299E-01   1.9855E+01  0.000E+00  0.000E+00  0.000E+00  1.07851E+03  1.100E+00  1.200E+01  6.659E-02  1.367E+00
   1    4    5     2     1    1.7855E+01  3.1056E-01   1.7544E+01  0.000E+00  0.000E+00  0.000E+00  1.07292E+03  9.816E-01  1.200E+01  7.800E-02  1.327E+00
   1    5    6     2     2    1.7544E+01  2.3834E-01   1.7306E+01  0.000E+00  0.000E+00  0.000E+00  1.06748E+03  9.724E-01  1.200E+01  6.000E-02  1.324E+00
   1    6    6     2     3    1.7306E+01  2.3787E-01   1.7068E+01  0.000E+00  0.000E+00  0.000E+00  1.06276E+03  9.644E-01  1.200E+01  6.000E-02  1.321E+00
   1    7    6     2     4    1.7068E+01  2.3738E-01   1.6831E+01  0.000E+00  0.000E+00  0.000E+00  1.05803E+03  9.564E-01  1.200E+01  6.000E-02  1.319E+00
   1    8    6     2     5    1.6831E+01  2.3690E-01   1.6594E+01  0.000E+00  0.000E+00  0.000E+00  1.05331E+03  9.483E-01  1.200E+01  6.000E-02  1.316E+00
   1    3    5     3     1    2.0000E+00  2.8252E-01   1.7175E+00  0.000E+00  0.000E+00  0.000E+00  1.07555E+03  1.909E+00  9.636E+00  7.227E-02  1.955E+00
   1    3    6     3     2    1.7175E+00  2.4905E-01   1.4684E+00  0.000E+00  0.000E+00  0.000E+00  1.07264E+03  1.727E+00  8.909E+00  6.682E-02  1.864E+00
   1    3    7     3     3    1.4684E+00  1.9718E-01   1.2712E+00  0.000E+00  0.000E+00  0.000E+00  1.06987E+03  1.555E+00  8.218E+00  5.547E-02  1.777E+00
   1    4    8     3     4    1.2712E+00  2.2567E-01   1.0456E+00  0.000E+00  0.000E+00  0.000E+00  1.06682E+03  1.364E+00  7.455E+00  6.709E-02  1.682E+00
   1    5    8     3     5    1.0456E+00  1.5790E-01   8.8768E-01  0.000E+00  0.000E+00  0.000E+00  1.06362E+03  1.164E+00  6.655E+00  4.991E-02  1.582E+00
   1    6    8     3     6    8.8768E-01  5.5980E-02   8.3170E-01  0.000E+00  0.000E+00  0.000E+00  1.06158E+03  1.036E+00  6.145E+00  1.844E-02  1.518E+00
   1    5   10     4     1    1.0000E+01  9.0919E-02   9.9091E+00  0.000E+00  0.000E+00  0.000E+00  1.07836E+03  6.368E-01  1.000E+01  2.500E-02  1.212E+00
   1    5    9     4     2    9.9091E+00  1.8158E-01   9.7275E+00  0.000E+00  0.000E+00  0.000E+00  1.07154E+03  6.315E-01  1.000E+01  5.000E-02  1.211E+00
   1    6    8     4     3    9.7275E+00  1.2689E-01   9.6006E+00  0.000E+00  0.000E+00  0.000E+00  1.06381E+03  6.256E-01  1.000E+01  3.500E-02  1.209E+00
   1    6    8     5     1    1.0432E+01  2.2686E-01   1.0205E+01  0.000E+00  0.000E+00  0.000E+00  1.05868E+03  6.790E-01  1.542E+01  6.166E-02  1.226E+00
   1    7    7     5     2    1.0205E+01  2.7894E-01   9.9265E+00  0.000E+00  0.000E+00  0.000E+00  1.05417E+03  6.732E-01  1.519E+01  7.594E-02  1.224E+00
   1    8    7     5     3    9.9265E+00  1.9221E-01   9.7343E+00  0.000E+00  0.000E+00  0.000E+00  1.04992E+03  6.676E-01  1.497E+01  5.241E-02  1.223E+00
   1    8    6     5     4    9.7343E+00  1.3577E-01   9.5985E+00  0.000E+00  0.000E+00  0.000E+00  1.04691E+03  6.637E-01  1.482E+01  3.706E-02  1.221E+00
   1    9    6     6     1    2.6192E+01  2.5512E-01   2.5937E+01  0.000E+00  0.000E+00  0.000E+00  1.04398E+03  1.252E+00  1.200E+01  6.000E-02  1.417E+00
   1   10    7     6     2    2.5937E+01  2.5468E-01   2.5683E+01  0.000E+00  0.000E+00  0.000E+00  1.03943E+03  1.245E+00  1.200E+01  6.000E-02  1.415E+00
   1   11    7     6     3    2.5683E+01  2.5424E-01   2.5428E+01  0.000E+00  0.000E+00  0.000E+00  1.03487E+03  1.237E+00  1.200E+01  6.000E-02  1.412E+00
   1   12    7     6     4    2.5428E+01  2.5379E-01   2.5175E+01  0.000E+00  0.000E+00  0.000E+00  1.03032E+03  1.230E+00  1.200E+01  6.000E-02  1.410E+00
   1   13    7     6     5    2.5175E+01  5.0378E-05   2.5175E+01  0.000E+00  0.000E+00  0.000E+00  1.02714E+03  1.226E+00  1.200E+01  2.400E-02  6.997E-04
   1   14    9     7     1    1.5000E+02  1.3356E+00   1.4866E+02  0.000E+00  0.000E+00  0.000E+00  1.03987E+03  2.288E+00  5.529E+01  5.593E-01  7.960E-01
   1   13    8     7     2    1.4866E+02  1.8260E+00   1.4684E+02  0.000E+00  0.000E+00  0.000E+00  1.03478E+03  2.279E+00  5.526E+01  6.148E-01  9.900E-01
   1   13    7     7     3    1.4684E+02  1.4279E+00   1.4541E+02  0.000E+00  0.000E+00  0.000E+00  1.02969E+03  2.271E+00  5.522E+01  5.585E-01  8.523E-01
   1   13    6     8     1    1.7059E+02  8.6032E-01   1.6972E+02  0.000E+00  0.000E+00  0.000E+00  1.02483E+03  2.953E+00  4.282E+01  4.364E-01  6.572E-01
   1   13    5     8     2    1.6972E+02  1.0534E-01   1.6962E+02  0.000E+00  0.000E+00  0.000E+00  1.01858E+03  2.950E+00  4.278E+01  4.359E-01  8.055E-02
   1   13    4     8     3    1.6962E+02 -2.8814E+00   1.7250E+02  0.000E+00  0.000E+00  0.000E+00  1.01233E+03  2.959E+00  4.291E+01  4.372E+00 -2.197E-01
   1   13    3     8     4    1.7250E+02 -3.9932E+00   1.7649E+02  0.000E+00  0.000E+00  0.000E+00  1.00611E+03  2.981E+00  4.323E+01  4.405E+00 -3.022E-01
   1   13    2     8     5    1.7649E+02 -2.9156E+00   1.7941E+02  0.000E+00  0.000E+00  0.000E+00  9.99878E+02  3.003E+00  4.355E+01  4.438E+00 -2.190E-01
   1   13    1     8     6    1.7941E+02 -2.1958E+00   1.8161E+02  0.000E+00  0.000E+00  0.000E+00  9.94894E+02  3.019E+00  4.378E+01  2.677E+00 -2.734E-01
   1    8    6     9     1    8.2801E-07  0.0000E+00   8.2801E-07  0.000E+00  0.000E+00  0.000E+00  1.07875E+03  1.277E-04  4.000E+00  0.000E+00  1.000E+00
   1    8    5     9     2    8.2801E-07  0.0000E+00   8.2801E-07  0.000E+00  0.000E+00  0.000E+00  1.07825E+03  1.277E-04  4.000E+00  0.000E+00  1.000E+00



 UBDSV3 SAVING "           GW ET" ON UNIT  61 AT TIME STEP  8, STRESS PERIOD   5
 UBDSV3 SAVING "    UZF RECHARGE" ON UNIT  61 AT TIME STEP  8, STRESS PERIOD   5
 UBDSV3 SAVING " SURFACE LEAKAGE" ON UNIT  61 AT TIME STEP  8, STRESS PERIOD   5
 UBDSV3 SAVING "       HORT+DUNN" ON UNIT  61 AT TIME STEP  8, STRESS PERIOD   5
 UBDSV3 SAVING "  STORAGE CHANGE" ON UNIT  61 AT TIME STEP  8, STRESS PERIOD   5


UNSATURATED ZONE PACKAGE VOLUMETRIC BUDGET FOR  TIME STEP     8 STRESS PERIOD    5
  ------------------------------------------------------------------------------



     CUMULATIVE VOLUMES      L**3       RATES FOR THIS TIME STEP      L**3/T
     ------------------                 ------------------------

           IN:                                      IN:
           ---                                      ---
        INFILTRATION =    48448697.5031          INFILTRATION =           0.8475

          OUT:                                     OUT:
          ----                                     ----
              UZF ET =     9806333.1355                UZF ET =           4.5675
        UZF RECHARGE =       73224.0000          UZF RECHARGE =       0.0000E+00

            IN - OUT =    38569140.3676              IN - OUT =          -3.7200

          STORAGE:                                 STORAGE:
          --------                                 --------
      STORAGE CHANGE =    38584676.6980        STORAGE CHANGE =          -3.7200

 PERCENT DISCREPANCY IS DIFFERENCE BETWEEN IN-OUT MINUS CHANGE IN STORAGE
 DIVIDED BY THE AVERAGE OF IN AND OUT TIMES 100

 PERCENT DISCREPANCY =          -0.01     PERCENT DISCREPANCY =           0.00






 

        AG WELLS          PERIOD    5   STEP   8
 AG WELL      1   LAYER   1   ROW     6   COL     4   RATE   -4.004296E-08
 AG WELL      2   LAYER   1   ROW     6   COL     5   RATE   -4.004296E-08
 AG WELL      3   LAYER   1   ROW     7   COL     4   RATE   -4.004296E-08
 AG WELL      4   LAYER   1   ROW     7   COL     5   RATE   -4.004296E-08
 AG WELL      5   LAYER   1   ROW     8   COL     4   RATE   -4.004296E-08
 AG WELL      6   LAYER   1   ROW     8   COL     5   RATE   -4.004296E-08
 
 

   DIVERSION SEGMENTS     PERIOD    5   STEP   8
 SEGMENT      9   RATE    8.280094E-07
 
 

        SW IRRIGATION     PERIOD    5   STEP   8
 SEGMENT      9   ROW     6   COL     4   RATE    9.796058E-08
 SEGMENT      9   ROW     6   COL     5   RATE    9.796058E-08
 SEGMENT      9   ROW     7   COL     4   RATE    9.796058E-08
 SEGMENT      9   ROW     7   COL     5   RATE    9.796058E-08
 SEGMENT      9   ROW     8   COL     4   RATE    9.796058E-08
 SEGMENT      9   ROW     8   COL     5   RATE    9.796058E-08
 
 

        GW IRRIGATION     PERIOD    5   STEP   8
 AG WELL      1   ROW     6   COL     4   RATE    4.004296E-08
 AG WELL      2   ROW     6   COL     5   RATE    4.004296E-08
 AG WELL      3   ROW     7   COL     4   RATE    4.004296E-08
 AG WELL      4   ROW     7   COL     5   RATE    4.004296E-08
 AG WELL      5   ROW     8   COL     4   RATE    4.004296E-08
 AG WELL      6   ROW     8   COL     5   RATE    4.004296E-08
 
1
  VOLUMETRIC BUDGET FOR AGRICULTURAL FIELDS AT  END OF TIME STEP    8, STRESS PERIOD   5
  ------------------------------------------------------------------------------

     CUMULATIVE VOLUMES      L**3       RATES FOR THIS TIME STEP      L**3/T
     ------------------                 ------------------------

           IN:                                      IN:
           ---                                      ---
           AG WELLS      =    39639328.0000             AG WELLS      =       2.4026E-07
      DIVERSION SEGMENTS =     1455198.6250        DIVERSION SEGMENTS =       8.2801E-07
           GW IRRIGATION =           0.0000             GW IRRIGATION =           0.0000
           SW IRRIGATION =           0.0000             SW IRRIGATION =           0.0000
        SYSTEM LOSSES GW =           0.0000          SYSTEM LOSSES GW =           0.0000
        SYSTEM LOSSES SW =           0.0000          SYSTEM LOSSES SW =           0.0000

                TOTAL IN =    41094528.0000                  TOTAL IN =       1.0683E-06

          OUT:                                     OUT:
          ----                                     ----
           AG WELLS      =           0.0000             AG WELLS      =           0.0000
      DIVERSION SEGMENTS =           0.0000        DIVERSION SEGMENTS =           0.0000
           GW IRRIGATION =    39639328.0000             GW IRRIGATION =       2.4026E-07
           SW IRRIGATION =     1455227.6250             SW IRRIGATION =       8.2803E-07
        SYSTEM LOSSES GW =           0.0000          SYSTEM LOSSES GW =           0.0000
        SYSTEM LOSSES SW =           0.0000          SYSTEM LOSSES SW =           0.0000

               TOTAL OUT =    41094556.0000                 TOTAL OUT =       1.0683E-06

                IN - OUT =         -28.0000                  IN - OUT =      -1.6371E-11

     PERCENT DISCREPANCY =          -0.00         PERCENT DISCREPANCY =          -0.00



1
  VOLUMETRIC BUDGET FOR ENTIRE MODEL AT END OF TIME STEP    8, STRESS PERIOD   5
  ------------------------------------------------------------------------------

     CUMULATIVE VOLUMES      L**3       RATES FOR THIS TIME STEP      L**3/T
     ------------------                 ------------------------

           IN:                                      IN:
           ---                                      ---
             STORAGE     =    50042684.0000               STORAGE     =           8.1046
       CONSTANT HEAD     =           0.0000         CONSTANT HEAD     =           0.0000
     HEAD DEP BOUNDS     =     2479127.2500       HEAD DEP BOUNDS     =           0.2857
      STREAM LEAKAGE     =   103849064.0000        STREAM LEAKAGE     =          11.3806
        UZF RECHARGE     =       73223.9531          UZF RECHARGE     =           0.0000
               GW ET     =           0.0000                 GW ET     =           0.0000
     SURFACE LEAKAGE     =           0.0000       SURFACE LEAKAGE     =           0.0000
           AG WELLS      =           0.0000             AG WELLS      =           0.0000

                TOTAL IN =   156444096.0000                  TOTAL IN =          19.7710

          OUT:                                     OUT:
          ----                                     ----
             STORAGE     =    23229156.0000               STORAGE     =           7.4761
       CONSTANT HEAD     =           0.0000         CONSTANT HEAD     =           0.0000
     HEAD DEP BOUNDS     =     2522614.7500       HEAD DEP BOUNDS     =           0.2932
      STREAM LEAKAGE     =    91007408.0000        STREAM LEAKAGE     =          11.9860
        UZF RECHARGE     =           0.0000          UZF RECHARGE     =           0.0000
               GW ET     =       49468.5742                 GW ET     =       1.5813E-02
     SURFACE LEAKAGE     =           0.0000       SURFACE LEAKAGE     =           0.0000
           AG WELLS      =    39639328.0000             AG WELLS      =       2.4026E-07

               TOTAL OUT =   156447968.0000                 TOTAL OUT =          19.7710

                IN - OUT =       -3872.0000                  IN - OUT =       3.8147E-06

     PERCENT DISCREPANCY =          -0.00         PERCENT DISCREPANCY =           0.00






         TIME SUMMARY AT END OF TIME STEP    8 IN STRESS PERIOD    5
                    SECONDS     MINUTES      HOURS       DAYS        YEARS
                    -----------------------------------------------------------
   TIME STEP LENGTH  87667.      1461.1      24.352      1.0147     2.77799E-03
 STRESS PERIOD TIME 7.01333E+05  11689.      194.81      8.1173     2.22239E-02
         TOTAL TIME 8.67773E+06 1.44629E+05  2410.5      100.44     0.27498    
1
 
 SOLVING FOR HEAD 
                                                   Max.-Head-Change                         Max.-Flux-Residual
  Residual-Control   Outer-Iter.   Inner-Iter.     Column Row Layer    Maximum-Head-Change  Column Row Layer    Maximum-Flux-Residual          L2-NORM 
          0                 1           2             5    8     1       0.2723616273E-01       5    8    1         0.1491252559E+01      0.3476341656E+01
          0                 2           2             5    8     1      -0.2649365996E-02       5    8    1        -0.1491273603E+00      0.3473710710E+00
          0                 3           2             5    8     1       0.1804117089E-03       5    8    1         0.1043889984E-01      0.2429193196E-01
          0                 4           1             5    8     1      -0.7178752278E-05       5    8    1        -0.4269516960E-03      0.9922561695E-03

    ------------------------------------------------
       NWT REQUIRED            4 OUTER ITERATIONS 
       AND A TOTAL OF          7 INNER ITERATIONS.
    ------------------------------------------------

 OUTPUT CONTROL FOR STRESS PERIOD    5   TIME STEP    9
    PRINT BUDGET
    SAVE BUDGET
 UBDSV1 SAVING "         STORAGE" ON UNIT 102 AT TIME STEP  9, STRESS PERIOD   5
 UBDSV2 SAVING "   CONSTANT HEAD" ON UNIT 102 AT TIME STEP  9, STRESS PERIOD   5
 UBDSV1 SAVING "FLOW RIGHT FACE " ON UNIT 102 AT TIME STEP  9, STRESS PERIOD   5
 UBDSV1 SAVING "FLOW FRONT FACE " ON UNIT 102 AT TIME STEP  9, STRESS PERIOD   5

  HEAD DEP BOUNDS   PERIOD    5   STEP     9
 BOUNDARY      1   LAYER   1   ROW    13   COL     1   RATE   -0.293009    
 BOUNDARY      2   LAYER   1   ROW    14   COL     9   RATE    0.285742    



 STREAM LISTING     PERIOD      5   STEP        9

 LAYER ROW COL. STREAM  RCH.  FLOW INTO     FLOW TO   FLOW OUT OF   OVRLND.     DIRECT     STREAM       STREAM     STREAM     STREAM   STREAMBED  STREAMBED
                SEG.NO.  NO.  STRM. RCH.    AQUIFER    STRM. RCH.    RUNOFF     PRECIP       ET          HEAD       DEPTH      WIDTH   CONDCTNC.   GRADIENT

   1    1    1     1     1    2.1000E+01  2.2592E-01   2.0774E+01  0.000E+00  0.000E+00  0.000E+00  1.09416E+03  1.115E+00  1.220E+01  5.490E-02  1.372E+00
   1    2    2     1     2    2.0774E+01  3.4916E-01   2.0425E+01  0.000E+00  0.000E+00  0.000E+00  1.08917E+03  1.110E+00  1.214E+01  8.495E-02  1.370E+00
   1    3    3     1     3    2.0425E+01  2.9709E-01   2.0128E+01  0.000E+00  0.000E+00  0.000E+00  1.08352E+03  1.105E+00  1.206E+01  7.238E-02  1.368E+00
   1    3    4     1     4    2.0128E+01  2.7299E-01   1.9855E+01  0.000E+00  0.000E+00  0.000E+00  1.07851E+03  1.100E+00  1.200E+01  6.659E-02  1.367E+00
   1    4    5     2     1    1.7855E+01  3.1056E-01   1.7544E+01  0.000E+00  0.000E+00  0.000E+00  1.07292E+03  9.816E-01  1.200E+01  7.800E-02  1.327E+00
   1    5    6     2     2    1.7544E+01  2.3834E-01   1.7306E+01  0.000E+00  0.000E+00  0.000E+00  1.06748E+03  9.724E-01  1.200E+01  6.000E-02  1.324E+00
   1    6    6     2     3    1.7306E+01  2.3787E-01   1.7068E+01  0.000E+00  0.000E+00  0.000E+00  1.06276E+03  9.644E-01  1.200E+01  6.000E-02  1.321E+00
   1    7    6     2     4    1.7068E+01  2.3738E-01   1.6831E+01  0.000E+00  0.000E+00  0.000E+00  1.05803E+03  9.564E-01  1.200E+01  6.000E-02  1.319E+00
   1    8    6     2     5    1.6831E+01  2.3690E-01   1.6594E+01  0.000E+00  0.000E+00  0.000E+00  1.05331E+03  9.483E-01  1.200E+01  6.000E-02  1.316E+00
   1    3    5     3     1    2.0000E+00  2.8252E-01   1.7175E+00  0.000E+00  0.000E+00  0.000E+00  1.07555E+03  1.909E+00  9.636E+00  7.227E-02  1.955E+00
   1    3    6     3     2    1.7175E+00  2.4905E-01   1.4684E+00  0.000E+00  0.000E+00  0.000E+00  1.07264E+03  1.727E+00  8.909E+00  6.682E-02  1.864E+00
   1    3    7     3     3    1.4684E+00  1.9718E-01   1.2712E+00  0.000E+00  0.000E+00  0.000E+00  1.06987E+03  1.555E+00  8.218E+00  5.547E-02  1.777E+00
   1    4    8     3     4    1.2712E+00  2.2567E-01   1.0456E+00  0.000E+00  0.000E+00  0.000E+00  1.06682E+03  1.364E+00  7.455E+00  6.709E-02  1.682E+00
   1    5    8     3     5    1.0456E+00  1.5790E-01   8.8768E-01  0.000E+00  0.000E+00  0.000E+00  1.06362E+03  1.164E+00  6.655E+00  4.991E-02  1.582E+00
   1    6    8     3     6    8.8768E-01  5.5980E-02   8.3170E-01  0.000E+00  0.000E+00  0.000E+00  1.06158E+03  1.036E+00  6.145E+00  1.844E-02  1.518E+00
   1    5   10     4     1    1.0000E+01  9.0919E-02   9.9091E+00  0.000E+00  0.000E+00  0.000E+00  1.07836E+03  6.368E-01  1.000E+01  2.500E-02  1.212E+00
   1    5    9     4     2    9.9091E+00  1.8158E-01   9.7275E+00  0.000E+00  0.000E+00  0.000E+00  1.07154E+03  6.315E-01  1.000E+01  5.000E-02  1.211E+00
   1    6    8     4     3    9.7275E+00  1.2689E-01   9.6006E+00  0.000E+00  0.000E+00  0.000E+00  1.06381E+03  6.256E-01  1.000E+01  3.500E-02  1.209E+00
   1    6    8     5     1    1.0432E+01  2.2686E-01   1.0205E+01  0.000E+00  0.000E+00  0.000E+00  1.05868E+03  6.790E-01  1.542E+01  6.166E-02  1.226E+00
   1    7    7     5     2    1.0205E+01  2.7894E-01   9.9265E+00  0.000E+00  0.000E+00  0.000E+00  1.05417E+03  6.732E-01  1.519E+01  7.594E-02  1.224E+00
   1    8    7     5     3    9.9265E+00  1.9221E-01   9.7343E+00  0.000E+00  0.000E+00  0.000E+00  1.04992E+03  6.676E-01  1.497E+01  5.241E-02  1.223E+00
   1    8    6     5     4    9.7343E+00  1.3577E-01   9.5985E+00  0.000E+00  0.000E+00  0.000E+00  1.04691E+03  6.637E-01  1.482E+01  3.706E-02  1.221E+00
   1    9    6     6     1    2.6192E+01  2.5512E-01   2.5937E+01  0.000E+00  0.000E+00  0.000E+00  1.04398E+03  1.252E+00  1.200E+01  6.000E-02  1.417E+00
   1   10    7     6     2    2.5937E+01  2.5468E-01   2.5683E+01  0.000E+00  0.000E+00  0.000E+00  1.03943E+03  1.245E+00  1.200E+01  6.000E-02  1.415E+00
   1   11    7     6     3    2.5683E+01  2.5424E-01   2.5428E+01  0.000E+00  0.000E+00  0.000E+00  1.03487E+03  1.237E+00  1.200E+01  6.000E-02  1.412E+00
   1   12    7     6     4    2.5428E+01  2.5379E-01   2.5175E+01  0.000E+00  0.000E+00  0.000E+00  1.03032E+03  1.230E+00  1.200E+01  6.000E-02  1.410E+00
   1   13    7     6     5    2.5175E+01  4.2837E-05   2.5175E+01  0.000E+00  0.000E+00  0.000E+00  1.02714E+03  1.226E+00  1.200E+01  2.400E-02  5.950E-04
   1   14    9     7     1    1.5000E+02  1.3356E+00   1.4866E+02  0.000E+00  0.000E+00  0.000E+00  1.03987E+03  2.288E+00  5.529E+01  5.593E-01  7.960E-01
   1   13    8     7     2    1.4866E+02  1.8259E+00   1.4684E+02  0.000E+00  0.000E+00  0.000E+00  1.03478E+03  2.279E+00  5.526E+01  6.148E-01  9.900E-01
   1   13    7     7     3    1.4684E+02  1.4277E+00   1.4541E+02  0.000E+00  0.000E+00  0.000E+00  1.02969E+03  2.271E+00  5.522E+01  5.585E-01  8.522E-01
   1   13    6     8     1    1.7059E+02  8.6072E-01   1.6972E+02  0.000E+00  0.000E+00  0.000E+00  1.02483E+03  2.953E+00  4.282E+01  4.364E-01  6.575E-01
   1   13    5     8     2    1.6972E+02  1.0577E-01   1.6962E+02  0.000E+00  0.000E+00  0.000E+00  1.01858E+03  2.950E+00  4.278E+01  4.359E-01  8.088E-02
   1   13    4     8     3    1.6962E+02 -2.8612E+00   1.7248E+02  0.000E+00  0.000E+00  0.000E+00  1.01233E+03  2.959E+00  4.291E+01  4.372E+00 -2.181E-01
   1   13    3     8     4    1.7248E+02 -3.9731E+00   1.7645E+02  0.000E+00  0.000E+00  0.000E+00  1.00611E+03  2.981E+00  4.323E+01  4.405E+00 -3.007E-01
   1   13    2     8     5    1.7645E+02 -2.8919E+00   1.7935E+02  0.000E+00  0.000E+00  0.000E+00  9.99878E+02  3.003E+00  4.354E+01  4.437E+00 -2.173E-01
   1   13    1     8     6    1.7935E+02 -2.1863E+00   1.8153E+02  0.000E+00  0.000E+00  0.000E+00  9.94894E+02  3.019E+00  4.377E+01  2.676E+00 -2.723E-01
   1    8    6     9     1    1.1066E-07  0.0000E+00   1.1066E-07  0.000E+00  0.000E+00  0.000E+00  1.07875E+03  3.817E-05  4.000E+00  0.000E+00  1.000E+00
   1    8    5     9     2    1.1066E-07  0.0000E+00   1.1066E-07  0.000E+00  0.000E+00  0.000E+00  1.07825E+03  3.817E-05  4.000E+00  0.000E+00  1.000E+00



 UBDSV3 SAVING "           GW ET" ON UNIT  61 AT TIME STEP  9, STRESS PERIOD   5
 UBDSV3 SAVING "    UZF RECHARGE" ON UNIT  61 AT TIME STEP  9, STRESS PERIOD   5
 UBDSV3 SAVING " SURFACE LEAKAGE" ON UNIT  61 AT TIME STEP  9, STRESS PERIOD   5
 UBDSV3 SAVING "       HORT+DUNN" ON UNIT  61 AT TIME STEP  9, STRESS PERIOD   5
 UBDSV3 SAVING "  STORAGE CHANGE" ON UNIT  61 AT TIME STEP  9, STRESS PERIOD   5


UNSATURATED ZONE PACKAGE VOLUMETRIC BUDGET FOR  TIME STEP     9 STRESS PERIOD    5
  ------------------------------------------------------------------------------



     CUMULATIVE VOLUMES      L**3       RATES FOR THIS TIME STEP      L**3/T
     ------------------                 ------------------------

           IN:                                      IN:
           ---                                      ---
        INFILTRATION =    48522995.0086          INFILTRATION =           0.8475

          OUT:                                     OUT:
          ----                                     ----
              UZF ET =    10206874.2134                UZF ET =           4.5689
        UZF RECHARGE =       73224.0000          UZF RECHARGE =       0.0000E+00

            IN - OUT =    38242896.7952              IN - OUT =          -3.7214

          STORAGE:                                 STORAGE:
          --------                                 --------
      STORAGE CHANGE =    38258433.1250        STORAGE CHANGE =          -3.7214

 PERCENT DISCREPANCY IS DIFFERENCE BETWEEN IN-OUT MINUS CHANGE IN STORAGE
 DIVIDED BY THE AVERAGE OF IN AND OUT TIMES 100

 PERCENT DISCREPANCY =          -0.01     PERCENT DISCREPANCY =           0.00






 

        AG WELLS          PERIOD    5   STEP   9
 AG WELL      1   LAYER   1   ROW     6   COL     4   RATE     0.00000    
 AG WELL      2   LAYER   1   ROW     6   COL     5   RATE     0.00000    
 AG WELL      3   LAYER   1   ROW     7   COL     4   RATE     0.00000    
 AG WELL      4   LAYER   1   ROW     7   COL     5   RATE     0.00000    
 AG WELL      5   LAYER   1   ROW     8   COL     4   RATE     0.00000    
 AG WELL      6   LAYER   1   ROW     8   COL     5   RATE     0.00000    
 
 

   DIVERSION SEGMENTS     PERIOD    5   STEP   9
 SEGMENT      9   RATE    1.106598E-07
 
 

        SW IRRIGATION     PERIOD    5   STEP   9
 SEGMENT      9   ROW     6   COL     4   RATE    1.844368E-08
 SEGMENT      9   ROW     6   COL     5   RATE    1.844368E-08
 SEGMENT      9   ROW     7   COL     4   RATE    1.844368E-08
 SEGMENT      9   ROW     7   COL     5   RATE    1.844368E-08
 SEGMENT      9   ROW     8   COL     4   RATE    1.844368E-08
 SEGMENT      9   ROW     8   COL     5   RATE    1.844368E-08
 
 

        GW IRRIGATION     PERIOD    5   STEP   9
 AG WELL      1   ROW     6   COL     4   RATE     0.00000    
 AG WELL      2   ROW     6   COL     5   RATE     0.00000    
 AG WELL      3   ROW     7   COL     4   RATE     0.00000    
 AG WELL      4   ROW     7   COL     5   RATE     0.00000    
 AG WELL      5   ROW     8   COL     4   RATE     0.00000    
 AG WELL      6   ROW     8   COL     5   RATE     0.00000    
 
1
  VOLUMETRIC BUDGET FOR AGRICULTURAL FIELDS AT  END OF TIME STEP    9, STRESS PERIOD   5
  ------------------------------------------------------------------------------

     CUMULATIVE VOLUMES      L**3       RATES FOR THIS TIME STEP      L**3/T
     ------------------                 ------------------------

           IN:                                      IN:
           ---                                      ---
           AG WELLS      =    39639328.0000             AG WELLS      =           0.0000
      DIVERSION SEGMENTS =     1455198.6250        DIVERSION SEGMENTS =       1.1066E-07
           GW IRRIGATION =           0.0000             GW IRRIGATION =           0.0000
           SW IRRIGATION =           0.0000             SW IRRIGATION =           0.0000
        SYSTEM LOSSES GW =           0.0000          SYSTEM LOSSES GW =           0.0000
        SYSTEM LOSSES SW =           0.0000          SYSTEM LOSSES SW =           0.0000

                TOTAL IN =    41094528.0000                  TOTAL IN =       1.1066E-07

          OUT:                                     OUT:
          ----                                     ----
           AG WELLS      =           0.0000             AG WELLS      =           0.0000
      DIVERSION SEGMENTS =           0.0000        DIVERSION SEGMENTS =           0.0000
           GW IRRIGATION =    39639328.0000             GW IRRIGATION =           0.0000
           SW IRRIGATION =     1455227.6250             SW IRRIGATION =       1.1066E-07
        SYSTEM LOSSES GW =           0.0000          SYSTEM LOSSES GW =           0.0000
        SYSTEM LOSSES SW =           0.0000          SYSTEM LOSSES SW =           0.0000

               TOTAL OUT =    41094556.0000                 TOTAL OUT =       1.1066E-07

                IN - OUT =         -28.0000                  IN - OUT =      -2.2098E-12

     PERCENT DISCREPANCY =          -0.00         PERCENT DISCREPANCY =          -0.00



1
  VOLUMETRIC BUDGET FOR ENTIRE MODEL AT END OF TIME STEP    9, STRESS PERIOD   5
  ------------------------------------------------------------------------------

     CUMULATIVE VOLUMES      L**3       RATES FOR THIS TIME STEP      L**3/T
     ------------------                 ------------------------

           IN:                                      IN:
           ---                                      ---
             STORAGE     =    50725112.0000               STORAGE     =           7.7843
       CONSTANT HEAD     =           0.0000         CONSTANT HEAD     =           0.0000
     HEAD DEP BOUNDS     =     2504177.2500       HEAD DEP BOUNDS     =           0.2857
      STREAM LEAKAGE     =   104846816.0000        STREAM LEAKAGE     =          11.3812
        UZF RECHARGE     =       73223.9531          UZF RECHARGE     =           0.0000
               GW ET     =           0.0000                 GW ET     =           0.0000
     SURFACE LEAKAGE     =           0.0000       SURFACE LEAKAGE     =           0.0000
           AG WELLS      =           0.0000             AG WELLS      =           0.0000

                TOTAL IN =   158149312.0000                  TOTAL IN =          19.4513

          OUT:                                     OUT:
          ----                                     ----
             STORAGE     =    23863490.0000               STORAGE     =           7.2357
       CONSTANT HEAD     =           0.0000         CONSTANT HEAD     =           0.0000
     HEAD DEP BOUNDS     =     2548302.0000       HEAD DEP BOUNDS     =           0.2930
      STREAM LEAKAGE     =    92051736.0000        STREAM LEAKAGE     =          11.9125
        UZF RECHARGE     =           0.0000          UZF RECHARGE     =           0.0000
               GW ET     =       50344.0586                 GW ET     =       9.9865E-03
     SURFACE LEAKAGE     =           0.0000       SURFACE LEAKAGE     =           0.0000
           AG WELLS      =    39639328.0000             AG WELLS      =           0.0000

               TOTAL OUT =   158153200.0000                 TOTAL OUT =          19.4513

                IN - OUT =       -3888.0000                  IN - OUT =       1.9073E-06

     PERCENT DISCREPANCY =          -0.00         PERCENT DISCREPANCY =           0.00






         TIME SUMMARY AT END OF TIME STEP    9 IN STRESS PERIOD    5
                    SECONDS     MINUTES      HOURS       DAYS        YEARS
                    -----------------------------------------------------------
   TIME STEP LENGTH  87667.      1461.1      24.352      1.0147     2.77799E-03
 STRESS PERIOD TIME 7.89000E+05  13150.      219.17      9.1319     2.50019E-02
         TOTAL TIME 8.76540E+06 1.46090E+05  2434.8      101.45     0.27776    
1
 
 SOLVING FOR HEAD 
                                                   Max.-Head-Change                         Max.-Flux-Residual
  Residual-Control   Outer-Iter.   Inner-Iter.     Column Row Layer    Maximum-Head-Change  Column Row Layer    Maximum-Flux-Residual          L2-NORM 
          0                 1           2             5    8     1       0.2587241613E-01       5    8    1         0.1415383683E+01      0.3327566357E+01
          0                 2           2             5    6     1      -0.1378777289E-01       5    8    1        -0.7615402365E+00      0.1796174023E+01
          0                 3           2             4    7     1       0.1209751957E-01       5    8    1         0.6733073457E+00      0.1643784519E+01
          0                 4           2             4    7     1      -0.4833818640E-03       5    8    1        -0.2764765211E-01      0.6751714392E-01
          0                 5           1             4    7     1       0.7916057533E-05       5    6    1         0.4640509885E-03      0.1136745980E-02

    ------------------------------------------------
       NWT REQUIRED            5 OUTER ITERATIONS 
       AND A TOTAL OF          9 INNER ITERATIONS.
    ------------------------------------------------

 OUTPUT CONTROL FOR STRESS PERIOD    5   TIME STEP   10
    PRINT BUDGET
    SAVE BUDGET
 UBDSV1 SAVING "         STORAGE" ON UNIT 102 AT TIME STEP 10, STRESS PERIOD   5
 UBDSV2 SAVING "   CONSTANT HEAD" ON UNIT 102 AT TIME STEP 10, STRESS PERIOD   5
 UBDSV1 SAVING "FLOW RIGHT FACE " ON UNIT 102 AT TIME STEP 10, STRESS PERIOD   5
 UBDSV1 SAVING "FLOW FRONT FACE " ON UNIT 102 AT TIME STEP 10, STRESS PERIOD   5

  HEAD DEP BOUNDS   PERIOD    5   STEP    10
 BOUNDARY      1   LAYER   1   ROW    13   COL     1   RATE   -0.292842    
 BOUNDARY      2   LAYER   1   ROW    14   COL     9   RATE    0.285743    



 STREAM LISTING     PERIOD      5   STEP       10

 LAYER ROW COL. STREAM  RCH.  FLOW INTO     FLOW TO   FLOW OUT OF   OVRLND.     DIRECT     STREAM       STREAM     STREAM     STREAM   STREAMBED  STREAMBED
                SEG.NO.  NO.  STRM. RCH.    AQUIFER    STRM. RCH.    RUNOFF     PRECIP       ET          HEAD       DEPTH      WIDTH   CONDCTNC.   GRADIENT

   1    1    1     1     1    2.1000E+01  2.2592E-01   2.0774E+01  0.000E+00  0.000E+00  0.000E+00  1.09416E+03  1.115E+00  1.220E+01  5.490E-02  1.372E+00
   1    2    2     1     2    2.0774E+01  3.4916E-01   2.0425E+01  0.000E+00  0.000E+00  0.000E+00  1.08917E+03  1.110E+00  1.214E+01  8.495E-02  1.370E+00
   1    3    3     1     3    2.0425E+01  2.9709E-01   2.0128E+01  0.000E+00  0.000E+00  0.000E+00  1.08352E+03  1.105E+00  1.206E+01  7.238E-02  1.368E+00
   1    3    4     1     4    2.0128E+01  2.7299E-01   1.9855E+01  0.000E+00  0.000E+00  0.000E+00  1.07851E+03  1.100E+00  1.200E+01  6.659E-02  1.367E+00
   1    4    5     2     1    1.7855E+01  3.1056E-01   1.7544E+01  0.000E+00  0.000E+00  0.000E+00  1.07292E+03  9.816E-01  1.200E+01  7.800E-02  1.327E+00
   1    5    6     2     2    1.7544E+01  2.3834E-01   1.7306E+01  0.000E+00  0.000E+00  0.000E+00  1.06748E+03  9.724E-01  1.200E+01  6.000E-02  1.324E+00
   1    6    6     2     3    1.7306E+01  2.3787E-01   1.7068E+01  0.000E+00  0.000E+00  0.000E+00  1.06276E+03  9.644E-01  1.200E+01  6.000E-02  1.321E+00
   1    7    6     2     4    1.7068E+01  2.3738E-01   1.6831E+01  0.000E+00  0.000E+00  0.000E+00  1.05803E+03  9.564E-01  1.200E+01  6.000E-02  1.319E+00
   1    8    6     2     5    1.6831E+01  2.3690E-01   1.6594E+01  0.000E+00  0.000E+00  0.000E+00  1.05331E+03  9.483E-01  1.200E+01  6.000E-02  1.316E+00
   1    3    5     3     1    2.0000E+00  2.8252E-01   1.7175E+00  0.000E+00  0.000E+00  0.000E+00  1.07555E+03  1.909E+00  9.636E+00  7.227E-02  1.955E+00
   1    3    6     3     2    1.7175E+00  2.4905E-01   1.4684E+00  0.000E+00  0.000E+00  0.000E+00  1.07264E+03  1.727E+00  8.909E+00  6.682E-02  1.864E+00
   1    3    7     3     3    1.4684E+00  1.9718E-01   1.2712E+00  0.000E+00  0.000E+00  0.000E+00  1.06987E+03  1.555E+00  8.218E+00  5.547E-02  1.777E+00
   1    4    8     3     4    1.2712E+00  2.2567E-01   1.0456E+00  0.000E+00  0.000E+00  0.000E+00  1.06682E+03  1.364E+00  7.455E+00  6.709E-02  1.682E+00
   1    5    8     3     5    1.0456E+00  1.5790E-01   8.8768E-01  0.000E+00  0.000E+00  0.000E+00  1.06362E+03  1.164E+00  6.655E+00  4.991E-02  1.582E+00
   1    6    8     3     6    8.8768E-01  5.5980E-02   8.3170E-01  0.000E+00  0.000E+00  0.000E+00  1.06158E+03  1.036E+00  6.145E+00  1.844E-02  1.518E+00
   1    5   10     4     1    1.0000E+01  9.0919E-02   9.9091E+00  0.000E+00  0.000E+00  0.000E+00  1.07836E+03  6.368E-01  1.000E+01  2.500E-02  1.212E+00
   1    5    9     4     2    9.9091E+00  1.8158E-01   9.7275E+00  0.000E+00  0.000E+00  0.000E+00  1.07154E+03  6.315E-01  1.000E+01  5.000E-02  1.211E+00
   1    6    8     4     3    9.7275E+00  1.2689E-01   9.6006E+00  0.000E+00  0.000E+00  0.000E+00  1.06381E+03  6.256E-01  1.000E+01  3.500E-02  1.209E+00
   1    6    8     5     1    1.0432E+01  2.2686E-01   1.0205E+01  0.000E+00  0.000E+00  0.000E+00  1.05868E+03  6.790E-01  1.542E+01  6.166E-02  1.226E+00
   1    7    7     5     2    1.0205E+01  2.7894E-01   9.9265E+00  0.000E+00  0.000E+00  0.000E+00  1.05417E+03  6.732E-01  1.519E+01  7.594E-02  1.224E+00
   1    8    7     5     3    9.9265E+00  1.9221E-01   9.7343E+00  0.000E+00  0.000E+00  0.000E+00  1.04992E+03  6.676E-01  1.497E+01  5.241E-02  1.223E+00
   1    8    6     5     4    9.7343E+00  1.3577E-01   9.5985E+00  0.000E+00  0.000E+00  0.000E+00  1.04691E+03  6.637E-01  1.482E+01  3.706E-02  1.221E+00
   1    9    6     6     1    2.2472E+01  2.4849E-01   2.2223E+01  0.000E+00  0.000E+00  0.000E+00  1.04387E+03  1.142E+00  1.200E+01  6.000E-02  1.381E+00
   1   10    7     6     2    2.2223E+01  2.4804E-01   2.1975E+01  0.000E+00  0.000E+00  0.000E+00  1.03932E+03  1.134E+00  1.200E+01  6.000E-02  1.378E+00
   1   11    7     6     3    2.1975E+01  2.4758E-01   2.1728E+01  0.000E+00  0.000E+00  0.000E+00  1.03476E+03  1.126E+00  1.200E+01  6.000E-02  1.375E+00
   1   12    7     6     4    2.1728E+01  2.4712E-01   2.1480E+01  0.000E+00  0.000E+00  0.000E+00  1.03021E+03  1.119E+00  1.200E+01  6.000E-02  1.373E+00
   1   13    7     6     5    2.1480E+01 -2.6165E-02   2.1507E+01  0.000E+00  0.000E+00  0.000E+00  1.02702E+03  1.115E+00  1.200E+01  2.400E-01 -3.634E-02
   1   14    9     7     1    1.5000E+02  1.3356E+00   1.4866E+02  0.000E+00  0.000E+00  0.000E+00  1.03987E+03  2.288E+00  5.529E+01  5.593E-01  7.960E-01
   1   13    8     7     2    1.4866E+02  1.8257E+00   1.4684E+02  0.000E+00  0.000E+00  0.000E+00  1.03478E+03  2.279E+00  5.526E+01  6.148E-01  9.899E-01
   1   13    7     7     3    1.4684E+02  1.4278E+00   1.4541E+02  0.000E+00  0.000E+00  0.000E+00  1.02969E+03  2.271E+00  5.522E+01  5.585E-01  8.522E-01
   1   13    6     8     1    1.6692E+02  8.4386E-01   1.6607E+02  0.000E+00  0.000E+00  0.000E+00  1.02480E+03  2.929E+00  4.247E+01  4.328E-01  6.499E-01
   1   13    5     8     2    1.6607E+02  9.5078E-02   1.6598E+02  0.000E+00  0.000E+00  0.000E+00  1.01855E+03  2.926E+00  4.243E+01  4.324E-01  7.330E-02
   1   13    4     8     3    1.6598E+02 -2.9168E+00   1.6890E+02  0.000E+00  0.000E+00  0.000E+00  1.01231E+03  2.935E+00  4.256E+01  4.337E+00 -2.242E-01
   1   13    3     8     4    1.6890E+02 -4.0196E+00   1.7291E+02  0.000E+00  0.000E+00  0.000E+00  1.00608E+03  2.958E+00  4.289E+01  4.371E+00 -3.065E-01
   1   13    2     8     5    1.7291E+02 -2.9408E+00   1.7586E+02  0.000E+00  0.000E+00  0.000E+00  9.99856E+02  2.981E+00  4.322E+01  4.404E+00 -2.226E-01
   1   13    1     8     6    1.7586E+02 -2.2169E+00   1.7807E+02  0.000E+00  0.000E+00  0.000E+00  9.94872E+02  2.997E+00  4.346E+01  2.657E+00 -2.781E-01
   1    8    6     9     1    3.7207E+00  0.0000E+00   3.7207E+00  0.000E+00  0.000E+00  0.000E+00  1.08000E+03  1.252E+00  4.000E+00  0.000E+00  1.417E+00
   1    8    5     9     2    3.7207E+00  0.0000E+00   3.7207E+00  0.000E+00  0.000E+00  0.000E+00  1.07950E+03  1.252E+00  4.000E+00  0.000E+00  1.417E+00



 UBDSV3 SAVING "           GW ET" ON UNIT  61 AT TIME STEP 10, STRESS PERIOD   5
 UBDSV3 SAVING "    UZF RECHARGE" ON UNIT  61 AT TIME STEP 10, STRESS PERIOD   5
 UBDSV3 SAVING " SURFACE LEAKAGE" ON UNIT  61 AT TIME STEP 10, STRESS PERIOD   5
 UBDSV3 SAVING "       HORT+DUNN" ON UNIT  61 AT TIME STEP 10, STRESS PERIOD   5
 UBDSV3 SAVING "  STORAGE CHANGE" ON UNIT  61 AT TIME STEP 10, STRESS PERIOD   5


UNSATURATED ZONE PACKAGE VOLUMETRIC BUDGET FOR  TIME STEP    10 STRESS PERIOD    5
  ------------------------------------------------------------------------------



     CUMULATIVE VOLUMES      L**3       RATES FOR THIS TIME STEP      L**3/T
     ------------------                 ------------------------

           IN:                                      IN:
           ---                                      ---
        INFILTRATION =    48923479.0045          INFILTRATION =           4.5683

          OUT:                                     OUT:
          ----                                     ----
              UZF ET =    10607291.6976                UZF ET =           4.5675
        UZF RECHARGE =       73224.0000          UZF RECHARGE =       0.0000E+00

            IN - OUT =    38242963.3069              IN - OUT =       7.5847E-04

          STORAGE:                                 STORAGE:
          --------                                 --------
      STORAGE CHANGE =    38258499.6276        STORAGE CHANGE =       7.5858E-04

 PERCENT DISCREPANCY IS DIFFERENCE BETWEEN IN-OUT MINUS CHANGE IN STORAGE
 DIVIDED BY THE AVERAGE OF IN AND OUT TIMES 100

 PERCENT DISCREPANCY =          -0.01     PERCENT DISCREPANCY =          -0.00






 

        AG WELLS          PERIOD    5   STEP  10
 AG WELL      1   LAYER   1   ROW     6   COL     4   RATE     0.00000    
 AG WELL      2   LAYER   1   ROW     6   COL     5   RATE     0.00000    
 AG WELL      3   LAYER   1   ROW     7   COL     4   RATE     0.00000    
 AG WELL      4   LAYER   1   ROW     7   COL     5   RATE     0.00000    
 AG WELL      5   LAYER   1   ROW     8   COL     4   RATE     0.00000    
 AG WELL      6   LAYER   1   ROW     8   COL     5   RATE     0.00000    
 
 

   DIVERSION SEGMENTS     PERIOD    5   STEP  10
 SEGMENT      9   RATE     3.72068    
 
 

        SW IRRIGATION     PERIOD    5   STEP  10
 SEGMENT      9   ROW     6   COL     4   RATE    0.620126    
 SEGMENT      9   ROW     6   COL     5   RATE    0.620126    
 SEGMENT      9   ROW     7   COL     4   RATE    0.620126    
 SEGMENT      9   ROW     7   COL     5   RATE    0.620126    
 SEGMENT      9   ROW     8   COL     4   RATE    0.620126    
 SEGMENT      9   ROW     8   COL     5   RATE    0.620126    
 
 

        GW IRRIGATION     PERIOD    5   STEP  10
 AG WELL      1   ROW     6   COL     4   RATE     0.00000    
 AG WELL      2   ROW     6   COL     5   RATE     0.00000    
 AG WELL      3   ROW     7   COL     4   RATE     0.00000    
 AG WELL      4   ROW     7   COL     5   RATE     0.00000    
 AG WELL      5   ROW     8   COL     4   RATE     0.00000    
 AG WELL      6   ROW     8   COL     5   RATE     0.00000    
 
1
  VOLUMETRIC BUDGET FOR AGRICULTURAL FIELDS AT  END OF TIME STEP   10, STRESS PERIOD   5
  ------------------------------------------------------------------------------

     CUMULATIVE VOLUMES      L**3       RATES FOR THIS TIME STEP      L**3/T
     ------------------                 ------------------------

           IN:                                      IN:
           ---                                      ---
           AG WELLS      =    39639328.0000             AG WELLS      =           0.0000
      DIVERSION SEGMENTS =     1781378.6250        DIVERSION SEGMENTS =           3.7207
           GW IRRIGATION =           0.0000             GW IRRIGATION =           0.0000
           SW IRRIGATION =           0.0000             SW IRRIGATION =           0.0000
        SYSTEM LOSSES GW =           0.0000          SYSTEM LOSSES GW =           0.0000
        SYSTEM LOSSES SW =           0.0000          SYSTEM LOSSES SW =           0.0000

                TOTAL IN =    41420708.0000                  TOTAL IN =           3.7207

          OUT:                                     OUT:
          ----                                     ----
           AG WELLS      =           0.0000             AG WELLS      =           0.0000
      DIVERSION SEGMENTS =           0.0000        DIVERSION SEGMENTS =           0.0000
           GW IRRIGATION =    39639328.0000             GW IRRIGATION =           0.0000
           SW IRRIGATION =     1781414.1250             SW IRRIGATION =           3.7208
        SYSTEM LOSSES GW =           0.0000          SYSTEM LOSSES GW =           0.0000
        SYSTEM LOSSES SW =           0.0000          SYSTEM LOSSES SW =           0.0000

               TOTAL OUT =    41420744.0000                 TOTAL OUT =           3.7208

                IN - OUT =         -36.0000                  IN - OUT =      -7.4148E-05

     PERCENT DISCREPANCY =          -0.00         PERCENT DISCREPANCY =          -0.00



1
  VOLUMETRIC BUDGET FOR ENTIRE MODEL AT END OF TIME STEP   10, STRESS PERIOD   5
  ------------------------------------------------------------------------------

     CUMULATIVE VOLUMES      L**3       RATES FOR THIS TIME STEP      L**3/T
     ------------------                 ------------------------

           IN:                                      IN:
           ---                                      ---
             STORAGE     =    51407508.0000               STORAGE     =           7.7840
       CONSTANT HEAD     =           0.0000         CONSTANT HEAD     =           0.0000
     HEAD DEP BOUNDS     =     2529227.5000       HEAD DEP BOUNDS     =           0.2857
      STREAM LEAKAGE     =   105839816.0000        STREAM LEAKAGE     =          11.3270
        UZF RECHARGE     =       73223.9531          UZF RECHARGE     =           0.0000
               GW ET     =           0.0000                 GW ET     =           0.0000
     SURFACE LEAKAGE     =           0.0000       SURFACE LEAKAGE     =           0.0000
           AG WELLS      =           0.0000             AG WELLS      =           0.0000

                TOTAL IN =   159849760.0000                  TOTAL IN =          19.3967

          OUT:                                     OUT:
          ----                                     ----
             STORAGE     =    24475426.0000               STORAGE     =           6.9803
       CONSTANT HEAD     =           0.0000         CONSTANT HEAD     =           0.0000
     HEAD DEP BOUNDS     =     2573974.5000       HEAD DEP BOUNDS     =           0.2928
      STREAM LEAKAGE     =    93114272.0000        STREAM LEAKAGE     =          12.1202
        UZF RECHARGE     =           0.0000          UZF RECHARGE     =           0.0000
               GW ET     =       50639.1836                 GW ET     =       3.3664E-03
     SURFACE LEAKAGE     =           0.0000       SURFACE LEAKAGE     =           0.0000
           AG WELLS      =    39639328.0000             AG WELLS      =           0.0000

               TOTAL OUT =   159853632.0000                 TOTAL OUT =          19.3967

                IN - OUT =       -3872.0000                  IN - OUT =       4.3869E-05

     PERCENT DISCREPANCY =          -0.00         PERCENT DISCREPANCY =           0.00






         TIME SUMMARY AT END OF TIME STEP   10 IN STRESS PERIOD    5
                    SECONDS     MINUTES      HOURS       DAYS        YEARS
                    -----------------------------------------------------------
   TIME STEP LENGTH  87667.      1461.1      24.352      1.0147     2.77799E-03
 STRESS PERIOD TIME 8.76667E+05  14611.      243.52      10.147     2.77799E-02
         TOTAL TIME 8.85306E+06 1.47551E+05  2459.2      102.47     0.28054    
1
 
 SOLVING FOR HEAD 
                                                   Max.-Head-Change                         Max.-Flux-Residual
  Residual-Control   Outer-Iter.   Inner-Iter.     Column Row Layer    Maximum-Head-Change  Column Row Layer    Maximum-Flux-Residual          L2-NORM 
          0                 1           2             5    6     1       0.2459819999E-01       5    8    1         0.1344498154E+01      0.3186801701E+01
          0                 2           2             5    6     1      -0.2392724000E-02       5    8    1        -0.1344514669E+00      0.3183686195E+00
          0                 3           2             4    7     1      -0.1132519839E-01       4    7    1        -0.6080046601E+00      0.1488115105E+01
          0                 4           2             4    7     1       0.1186463437E-01       4    7    1         0.6546632652E+00      0.1603227637E+01
          0                 5           2             4    7     1      -0.4722170363E-03       4    7    1        -0.2678282564E-01      0.6561613259E-01
          0                 6           1             4    7     1       0.5826962233E-05       4    7    1         0.3396814641E-03      0.8348281496E-03

    ------------------------------------------------
       NWT REQUIRED            6 OUTER ITERATIONS 
       AND A TOTAL OF         11 INNER ITERATIONS.
    ------------------------------------------------

 NO OUTPUT CONTROL FOR STRESS PERIOD    5   TIME STEP   11
 
 SOLVING FOR HEAD 
                                                   Max.-Head-Change                         Max.-Flux-Residual
  Residual-Control   Outer-Iter.   Inner-Iter.     Column Row Layer    Maximum-Head-Change  Column Row Layer    Maximum-Flux-Residual          L2-NORM 
          0                 1           2             5    6     1       0.2344794301E-01       5    6    1         0.1278432067E+01      0.3055456544E+01
          0                 2           2             5    6     1      -0.2280836186E-02       5    6    1        -0.1278425688E+00      0.3053822690E+00
          0                 3           2             4    7     1      -0.1133267797E-01       4    7    1        -0.6083944233E+00      0.1489843569E+01
          0                 4           2             4    7     1       0.1187382499E-01       4    7    1         0.6551691673E+00      0.1604520630E+01
          0                 5           2             4    7     1      -0.4737837151E-03       4    7    1        -0.2687163027E-01      0.6583572356E-01
          0                 6           1             4    7     1       0.7014712914E-05       5    8    1         0.4089354295E-03      0.1003962519E-02

    ------------------------------------------------
       NWT REQUIRED            6 OUTER ITERATIONS 
       AND A TOTAL OF         11 INNER ITERATIONS.
    ------------------------------------------------

 NO OUTPUT CONTROL FOR STRESS PERIOD    5   TIME STEP   12
 
 SOLVING FOR HEAD 
                                                   Max.-Head-Change                         Max.-Flux-Residual
  Residual-Control   Outer-Iter.   Inner-Iter.     Column Row Layer    Maximum-Head-Change  Column Row Layer    Maximum-Flux-Residual          L2-NORM 
          0                 1           2             5    6     1       0.2236840105E-01       5    6    1         0.1218659622E+01      0.2932731390E+01
          0                 2           2             5    6     1      -0.2175826942E-02       5    6    1        -0.1218653760E+00      0.2931353705E+00
          0                 3           2             4    7     1      -0.1133934553E-01       4    7    1        -0.6087413597E+00      0.1491409662E+01
          0                 4           2             4    7     1       0.1188197085E-01       4    7    1         0.6556175130E+00      0.1605668864E+01
          0                 5           2             4    7     1      -0.4749178584E-03       4    7    1        -0.2693590732E-01      0.6599511634E-01
          0                 6           1             4    7     1       0.7434996023E-05       5    8    1         0.4334524931E-03      0.1063939077E-02

    ------------------------------------------------
       NWT REQUIRED            6 OUTER ITERATIONS 
       AND A TOTAL OF         11 INNER ITERATIONS.
    ------------------------------------------------

 NO OUTPUT CONTROL FOR STRESS PERIOD    5   TIME STEP   13
 
 SOLVING FOR HEAD 
                                                   Max.-Head-Change                         Max.-Flux-Residual
  Residual-Control   Outer-Iter.   Inner-Iter.     Column Row Layer    Maximum-Head-Change  Column Row Layer    Maximum-Flux-Residual          L2-NORM 
          0                 1           2             5    6     1       0.2135448278E-01       5    6    1         0.1162554346E+01      0.2817728026E+01
          0                 2           2             5    6     1      -0.2077201094E-02       5    6    1        -0.1162548992E+00      0.2816578614E+00
          0                 3           2             4    7     1      -0.1134534557E-01       4    7    1        -0.6090531894E+00      0.1492840264E+01
          0                 4           2             4    7     1       0.1188923413E-01       4    7    1         0.6560172470E+00      0.1606694516E+01
          0                 5           2             4    7     1      -0.4743970076E-03       4    7    1        -0.2690632500E-01      0.6592460804E-01
          0                 6           1             4    7     1       0.7022281602E-05       5    8    1         0.4094108492E-03      0.1005080552E-02

    ------------------------------------------------
       NWT REQUIRED            6 OUTER ITERATIONS 
       AND A TOTAL OF         11 INNER ITERATIONS.
    ------------------------------------------------

 NO OUTPUT CONTROL FOR STRESS PERIOD    5   TIME STEP   14
 
 SOLVING FOR HEAD 
                                                   Max.-Head-Change                         Max.-Flux-Residual
  Residual-Control   Outer-Iter.   Inner-Iter.     Column Row Layer    Maximum-Head-Change  Column Row Layer    Maximum-Flux-Residual          L2-NORM 
          0                 1           2             5    6     1       0.2040144923E-01       5    6    1         0.1109850219E+01      0.2709825403E+01
          0                 2           2             5    6     1      -0.1984497479E-02       5    6    1        -0.1109845259E+00      0.2708869760E+00
          0                 3           2             4    7     1      -0.1135091740E-01       4    7    1        -0.6093427123E+00      0.1494169936E+01
          0                 4           2             4    7     1       0.1189588072E-01       4    7    1         0.6563830341E+00      0.1607633738E+01
          0                 5           2             4    7     1      -0.4746615454E-03       4    7    1        -0.2692128916E-01      0.6596300618E-01
          0                 6           1             4    7     1       0.7025546865E-05       5    8    1         0.4096163466E-03      0.1005566467E-02

    ------------------------------------------------
       NWT REQUIRED            6 OUTER ITERATIONS 
       AND A TOTAL OF         11 INNER ITERATIONS.
    ------------------------------------------------

 NO OUTPUT CONTROL FOR STRESS PERIOD    5   TIME STEP   15
 
 SOLVING FOR HEAD 
                                                   Max.-Head-Change                         Max.-Flux-Residual
  Residual-Control   Outer-Iter.   Inner-Iter.     Column Row Layer    Maximum-Head-Change  Column Row Layer    Maximum-Flux-Residual          L2-NORM 
          0                 1           2             5    6     1       0.1950528541E-01       5    6    1         0.1060320171E+01      0.2608528104E+01
          0                 2           2             5    6     1      -0.1899399093E-02       5    6    1        -0.1061455635E+00      0.2610075390E+00
          0                 3           2             4    7     1      -0.1134984859E-01       4    7    1        -0.6092764441E+00      0.1494583810E+01
          0                 4           2             4    7     1       0.1189766491E-01       4    7    1         0.6564806059E+00      0.1607912878E+01
          0                 5           2             4    7     1      -0.4755417916E-03       4    7    1        -0.2697117597E-01      0.6608673472E-01
          0                 6           1             4    7     1       0.7823763690E-05       5    8    1         0.4561596124E-03      0.1119308166E-02

    ------------------------------------------------
       NWT REQUIRED            6 OUTER ITERATIONS 
       AND A TOTAL OF         11 INNER ITERATIONS.
    ------------------------------------------------

 NO OUTPUT CONTROL FOR STRESS PERIOD    5   TIME STEP   16
 
 SOLVING FOR HEAD 
                                                   Max.-Head-Change                         Max.-Flux-Residual
  Residual-Control   Outer-Iter.   Inner-Iter.     Column Row Layer    Maximum-Head-Change  Column Row Layer    Maximum-Flux-Residual          L2-NORM 
          0                 1           2             5    6     1       0.1866197445E-01       5    6    1         0.1013738790E+01      0.2513313320E+01
          0                 2           2             5    6     1      -0.1816533610E-02       5    6    1        -0.1014415572E+00      0.2514086031E+00
          0                 3           2             4    7     1      -0.1135724339E-01       4    7    1        -0.6096650940E+00      0.1496071777E+01
          0                 4           2             4    7     1       0.1190500710E-01       4    7    1         0.6568849236E+00      0.1608940462E+01
          0                 5           2             4    7     1      -0.4758340151E-03       5    8    1        -0.2698831767E-01      0.6612874432E-01
          0                 6           1             4    7     1       0.7827369929E-05       5    8    1         0.4563827945E-03      0.1119837277E-02

    ------------------------------------------------
       NWT REQUIRED            6 OUTER ITERATIONS 
       AND A TOTAL OF         11 INNER ITERATIONS.
    ------------------------------------------------

 NO OUTPUT CONTROL FOR STRESS PERIOD    5   TIME STEP   17
 
 SOLVING FOR HEAD 
                                                   Max.-Head-Change                         Max.-Flux-Residual
  Residual-Control   Outer-Iter.   Inner-Iter.     Column Row Layer    Maximum-Head-Change  Column Row Layer    Maximum-Flux-Residual          L2-NORM 
          0                 1           2             5    6     1       0.1786810102E-01       5    6    1         0.9699143336E+00      0.2423731578E+01
          0                 2           2             5    6     1      -0.1739311853E-02       5    6    1        -0.9705914458E-01      0.2424644900E+00
          0                 3           2             4    7     1      -0.1136178459E-01       4    7    1        -0.6099011530E+00      0.1497147404E+01
          0                 4           2             4    7     1       0.1191013114E-01       4    7    1         0.6571669189E+00      0.1609665733E+01
          0                 5           2             4    7     1      -0.4760379547E-03       5    8    1        -0.2700082943E-01      0.6615839045E-01
          0                 6           1             4    7     1       0.7829887150E-05       5    8    1         0.4565414288E-03      0.1120234811E-02

    ------------------------------------------------
       NWT REQUIRED            6 OUTER ITERATIONS 
       AND A TOTAL OF         11 INNER ITERATIONS.
    ------------------------------------------------

 NO OUTPUT CONTROL FOR STRESS PERIOD    5   TIME STEP   18
 
 SOLVING FOR HEAD 
                                                   Max.-Head-Change                         Max.-Flux-Residual
  Residual-Control   Outer-Iter.   Inner-Iter.     Column Row Layer    Maximum-Head-Change  Column Row Layer    Maximum-Flux-Residual          L2-NORM 
          0                 1           2             5    6     1       0.1712022760E-01       5    6    1         0.9286531699E+00      0.2339360836E+01
          0                 2           2             5    6     1      -0.1665326105E-02       5    6    1        -0.9286495954E-01      0.2338973345E+00
          0                 3           2             4    7     1      -0.1136965499E-01       4    7    1        -0.6103164619E+00      0.1498626849E+01
          0                 4           2             4    7     1       0.1191727252E-01       4    7    1         0.6575602883E+00      0.1610661273E+01
          0                 5           2             4    7     1      -0.4743120601E-03       5    8    1        -0.2690381979E-01      0.6592002258E-01
          0                 6           1             4    7     1       0.5852813929E-05       5    8    1         0.3413059176E-03      0.8386405502E-03

    ------------------------------------------------
       NWT REQUIRED            6 OUTER ITERATIONS 
       AND A TOTAL OF         11 INNER ITERATIONS.
    ------------------------------------------------

 NO OUTPUT CONTROL FOR STRESS PERIOD    5   TIME STEP   19
 
 SOLVING FOR HEAD 
                                                   Max.-Head-Change                         Max.-Flux-Residual
  Residual-Control   Outer-Iter.   Inner-Iter.     Column Row Layer    Maximum-Head-Change  Column Row Layer    Maximum-Flux-Residual          L2-NORM 
          0                 1           2             5    6     1       0.1641516999E-01       5    6    1         0.8897770155E+00      0.2259830631E+01
          0                 2           2             5    6     1      -0.1597982125E-02       5    6    1        -0.8904547053E-01      0.2260974460E+00
          0                 3           2             4    7     1      -0.1137016401E-01       4    7    1        -0.6103371698E+00      0.1499104589E+01
          0                 4           2             4    7     1       0.1191927136E-01       4    7    1         0.6576699698E+00      0.1610959515E+01
          0                 5           2             4    7     1      -0.4743916145E-03       5    8    1        -0.2690913352E-01      0.6593218863E-01
          0                 6           1             4    7     1       0.5853795636E-05       5    8    1         0.3413732752E-03      0.8387838151E-03

    ------------------------------------------------
       NWT REQUIRED            6 OUTER ITERATIONS 
       AND A TOTAL OF         11 INNER ITERATIONS.
    ------------------------------------------------

 NO OUTPUT CONTROL FOR STRESS PERIOD    5   TIME STEP   20
 
 SOLVING FOR HEAD 
                                                   Max.-Head-Change                         Max.-Flux-Residual
  Residual-Control   Outer-Iter.   Inner-Iter.     Column Row Layer    Maximum-Head-Change  Column Row Layer    Maximum-Flux-Residual          L2-NORM 
          0                 1           2             5    6     1       0.1575059213E-01       5    6    1         0.8531540230E+00      0.2184795967E+01
          0                 2           2             5    6     1      -0.1534172036E-02       5    6    1        -0.8542910066E-01      0.2187005307E+00
          0                 3           2             4    7     1      -0.1137173034E-01       4    7    1        -0.6104151195E+00      0.1499691153E+01
          0                 4           2             4    7     1       0.1192183297E-01       4    7    1         0.6578107593E+00      0.1611331735E+01
          0                 5           2             4    7     1      -0.4756951602E-03       5    8    1        -0.2698380299E-01      0.6611419743E-01
          0                 6           1             4    7     1       0.7038303233E-05       5    8    1         0.4104293025E-03      0.1007454875E-02

    ------------------------------------------------
       NWT REQUIRED            6 OUTER ITERATIONS 
       AND A TOTAL OF         11 INNER ITERATIONS.
    ------------------------------------------------

 NO OUTPUT CONTROL FOR STRESS PERIOD    5   TIME STEP   21
 
 SOLVING FOR HEAD 
                                                   Max.-Head-Change                         Max.-Flux-Residual
  Residual-Control   Outer-Iter.   Inner-Iter.     Column Row Layer    Maximum-Head-Change  Column Row Layer    Maximum-Flux-Residual          L2-NORM 
          0                 1           2             5    6     1       0.1512314653E-01       5    6    1         0.8185967548E+00      0.2113916318E+01
          0                 2           2             5    6     1      -0.1473139026E-02       5    6    1        -0.8197339703E-01      0.2116211262E+00
          0                 3           2             4    7     1      -0.1137548018E-01       4    7    1        -0.6106107386E+00      0.1500536789E+01
          0                 4           2             4    7     1       0.1192567539E-01       4    7    1         0.6580222725E+00      0.1611875118E+01
          0                 5           2             4    7     1      -0.4746471985E-03       5    8    1        -0.2692505007E-01      0.6596968001E-01
          0                 6           1             4    7     1       0.5856949555E-05       5    8    1         0.3415750712E-03      0.8392484135E-03

    ------------------------------------------------
       NWT REQUIRED            6 OUTER ITERATIONS 
       AND A TOTAL OF         11 INNER ITERATIONS.
    ------------------------------------------------

 NO OUTPUT CONTROL FOR STRESS PERIOD    5   TIME STEP   22
 
 SOLVING FOR HEAD 
                                                   Max.-Head-Change                         Max.-Flux-Residual
  Residual-Control   Outer-Iter.   Inner-Iter.     Column Row Layer    Maximum-Head-Change  Column Row Layer    Maximum-Flux-Residual          L2-NORM 
          0                 1           2             5    6     1       0.1453091859E-01       5    6    1         0.7859978487E+00      0.2046914547E+01
          0                 2           2             5    6     1      -0.1415531706E-02       5    6    1        -0.7871352769E-01      0.2049283728E+00
          0                 3           2             4    7     1      -0.1137912074E-01       4    7    1        -0.6108009319E+00      0.1501341387E+01
          0                 4           2             4    7     1       0.1192931053E-01       4    7    1         0.6582223990E+00      0.1612388652E+01
          0                 5           2             4    7     1      -0.4747911782E-03       5    8    1        -0.2693384306E-01      0.6599055918E-01
          0                 6           1             4    7     1       0.5858726126E-05       5    8    1         0.3416865648E-03      0.8395077558E-03

    ------------------------------------------------
       NWT REQUIRED            6 OUTER ITERATIONS 
       AND A TOTAL OF         11 INNER ITERATIONS.
    ------------------------------------------------

 NO OUTPUT CONTROL FOR STRESS PERIOD    5   TIME STEP   23
 
 SOLVING FOR HEAD 
                                                   Max.-Head-Change                         Max.-Flux-Residual
  Residual-Control   Outer-Iter.   Inner-Iter.     Column Row Layer    Maximum-Head-Change  Column Row Layer    Maximum-Flux-Residual          L2-NORM 
          0                 1           2             5    6     1       0.1397124492E-01       5    6    1         0.7552084050E+00      0.1983505647E+01
          0                 2           2             5    6     1      -0.1361091004E-02       5    6    1        -0.7563460284E-01      0.1985937767E+00
          0                 3           2             4    7     1      -0.1138261520E-01       4    7    1        -0.6109836933E+00      0.1502101800E+01
          0                 4           2             4    7     1       0.1193270927E-01       4    7    1         0.6584095281E+00      0.1612868523E+01
          0                 5           2             4    7     1      -0.4749264493E-03       5    8    1        -0.2694209144E-01      0.6601015812E-01
          0                 6           1             4    7     1       0.5860395163E-05       5    8    1         0.3417911607E-03      0.8397542336E-03

    ------------------------------------------------
       NWT REQUIRED            6 OUTER ITERATIONS 
       AND A TOTAL OF         11 INNER ITERATIONS.
    ------------------------------------------------

 NO OUTPUT CONTROL FOR STRESS PERIOD    5   TIME STEP   24
 
 SOLVING FOR HEAD 
                                                   Max.-Head-Change                         Max.-Flux-Residual
  Residual-Control   Outer-Iter.   Inner-Iter.     Column Row Layer    Maximum-Head-Change  Column Row Layer    Maximum-Flux-Residual          L2-NORM 
          0                 1           2             5    7     1       0.1347594929E-01       5    6    1         0.7261234485E+00      0.1923433050E+01
          0                 2           2             5    7     1      -0.1310840495E-02       5    6    1        -0.7261212219E-01      0.1923448000E+00
          0                 3           2             4    7     1      -0.1139167731E-01       4    7    1        -0.6114656970E+00      0.1503571468E+01
          0                 4           2             4    7     1       0.1193961386E-01       4    7    1         0.6587901432E+00      0.1613820615E+01
          0                 5           2             4    7     1      -0.4764028486E-03       5    8    1        -0.2702635726E-01      0.6621589461E-01
          0                 6           1             4    7     1       0.7047035766E-05       5    8    1         0.4109689417E-03      0.1008724614E-02

    ------------------------------------------------
       NWT REQUIRED            6 OUTER ITERATIONS 
       AND A TOTAL OF         11 INNER ITERATIONS.
    ------------------------------------------------

 NO OUTPUT CONTROL FOR STRESS PERIOD    5   TIME STEP   25
 
 SOLVING FOR HEAD 
                                                   Max.-Head-Change                         Max.-Flux-Residual
  Residual-Control   Outer-Iter.   Inner-Iter.     Column Row Layer    Maximum-Head-Change  Column Row Layer    Maximum-Flux-Residual          L2-NORM 
          0                 1           2             5    7     1       0.1317111850E-01       5    7    1         0.7003729872E+00      0.1866482923E+01
          0                 2           2             5    7     1      -0.1281189081E-02       5    7    1        -0.7003718541E-01      0.1866532558E+00
          0                 3           2             4    7     1      -0.1139478713E-01       4    7    1        -0.6116285670E+00      0.1504236129E+01
          0                 4           2             4    7     1       0.1194246191E-01       4    7    1         0.6589469718E+00      0.1614222969E+01
          0                 5           2             4    7     1      -0.4753153102E-03       5    8    1        -0.2696516379E-01      0.6606560439E-01
          0                 6           1             4    7     1       0.5865193699E-05       5    8    1         0.3420837745E-03      0.8404430705E-03

    ------------------------------------------------
       NWT REQUIRED            6 OUTER ITERATIONS 
       AND A TOTAL OF         11 INNER ITERATIONS.
    ------------------------------------------------

 NO OUTPUT CONTROL FOR STRESS PERIOD    5   TIME STEP   26
 
 SOLVING FOR HEAD 
                                                   Max.-Head-Change                         Max.-Flux-Residual
  Residual-Control   Outer-Iter.   Inner-Iter.     Column Row Layer    Maximum-Head-Change  Column Row Layer    Maximum-Flux-Residual          L2-NORM 
          0                 1           2             5    7     1       0.1287387224E-01       5    7    1         0.6845346453E+00      0.1812436543E+01
          0                 2           2             5    7     1      -0.1252275397E-02       5    7    1        -0.6845337039E-01      0.1812514264E+00
          0                 3           2             4    7     1      -0.1139784518E-01       4    7    1        -0.6117889976E+00      0.1504873752E+01
          0                 4           2             4    7     1       0.1194519168E-01       4    7    1         0.6590973116E+00      0.1614615136E+01
          0                 5           2             4    7     1      -0.4774340842E-03       5    8    1        -0.2708577482E-01      0.6636089286E-01
          0                 6           1             4    7     1       0.7847117207E-05       5    8    1         0.4576186004E-03      0.1122746735E-02

    ------------------------------------------------
       NWT REQUIRED            6 OUTER ITERATIONS 
       AND A TOTAL OF         11 INNER ITERATIONS.
    ------------------------------------------------

 NO OUTPUT CONTROL FOR STRESS PERIOD    5   TIME STEP   27
 
 SOLVING FOR HEAD 
                                                   Max.-Head-Change                         Max.-Flux-Residual
  Residual-Control   Outer-Iter.   Inner-Iter.     Column Row Layer    Maximum-Head-Change  Column Row Layer    Maximum-Flux-Residual          L2-NORM 
          0                 1           2             5    7     1       0.1258416605E-01       5    7    1         0.6690896011E+00      0.1761092366E+01
          0                 2           2             5    7     1      -0.1224095125E-02       5    7    1        -0.6690888287E-01      0.1761193040E+00
          0                 3           2             4    7     1      -0.1140074055E-01       5    8    1        -0.6119446604E+00      0.1505470798E+01
          0                 4           2             4    7     1       0.1194769120E-01       5    8    1         0.6592431058E+00      0.1614967682E+01
          0                 5           2             4    7     1      -0.4755227383E-03       5    8    1        -0.2697778122E-01      0.6609607793E-01
          0                 6           1             4    7     1       0.5866390252E-05       5    8    1         0.3421642818E-03      0.8406303189E-03

    ------------------------------------------------
       NWT REQUIRED            6 OUTER ITERATIONS 
       AND A TOTAL OF         11 INNER ITERATIONS.
    ------------------------------------------------

 NO OUTPUT CONTROL FOR STRESS PERIOD    5   TIME STEP   28
 
 SOLVING FOR HEAD 
                                                   Max.-Head-Change                         Max.-Flux-Residual
  Residual-Control   Outer-Iter.   Inner-Iter.     Column Row Layer    Maximum-Head-Change  Column Row Layer    Maximum-Flux-Residual          L2-NORM 
          0                 1           2             5    7     1       0.1230740451E-01       5    7    1         0.6540354471E+00      0.1761564841E+01
          0                 2           2             7   13     1      -0.1323079509E-02       7   13    1        -0.7337334608E-01      0.1898855564E+00
          0                 3           2             4    7     1      -0.1140363155E-01       5    8    1        -0.6122312364E+00      0.1506037522E+01
          0                 4           2             4    7     1       0.1195013476E-01       5    8    1         0.6593870064E+00      0.1615160433E+01
          0                 5           2             4    7     1      -0.4776301204E-03       5    8    1        -0.2709766822E-01      0.6637090778E-01
          0                 6           1             4    7     1       0.7849536078E-05       5    8    1         0.4577693785E-03      0.1121230406E-02

    ------------------------------------------------
       NWT REQUIRED            6 OUTER ITERATIONS 
       AND A TOTAL OF         11 INNER ITERATIONS.
    ------------------------------------------------

 NO OUTPUT CONTROL FOR STRESS PERIOD    5   TIME STEP   29
 
 SOLVING FOR HEAD 
                                                   Max.-Head-Change                         Max.-Flux-Residual
  Residual-Control   Outer-Iter.   Inner-Iter.     Column Row Layer    Maximum-Head-Change  Column Row Layer    Maximum-Flux-Residual          L2-NORM 
          0                 1           2             4   13     1       0.2049975393E-01       4   13    1         0.1183972111E+01      0.2660949892E+01
          0                 2           2             4   13     1      -0.1972593339E-02       4   13    1        -0.1171419780E+00      0.2613033248E+00
          0                 3           2             4    7     1      -0.1140636978E-01       5    8    1        -0.6124962842E+00      0.1506201589E+01
          0                 4           2             4    7     1       0.1195237291E-01       5    8    1         0.6595185423E+00      0.1615473642E+01
          0                 5           2             4    7     1      -0.4777199003E-03       5    8    1        -0.2710308087E-01      0.6638381246E-01
          0                 6           1             4    7     1       0.7850643915E-05       5    8    1         0.4578379335E-03      0.1121397147E-02

    ------------------------------------------------
       NWT REQUIRED            6 OUTER ITERATIONS 
       AND A TOTAL OF         11 INNER ITERATIONS.
    ------------------------------------------------

 NO OUTPUT CONTROL FOR STRESS PERIOD    5   TIME STEP   30



 STREAM LISTING     PERIOD      5   STEP       30

 LAYER ROW COL. STREAM  RCH.  FLOW INTO     FLOW TO   FLOW OUT OF   OVRLND.     DIRECT     STREAM       STREAM     STREAM     STREAM   STREAMBED  STREAMBED
                SEG.NO.  NO.  STRM. RCH.    AQUIFER    STRM. RCH.    RUNOFF     PRECIP       ET          HEAD       DEPTH      WIDTH   CONDCTNC.   GRADIENT

   1    1    1     1     1    7.4250E+01  4.1989E-01   7.3830E+01  0.000E+00  0.000E+00  0.000E+00  1.09474E+03  1.690E+00  1.990E+01  8.954E-02  1.563E+00
   1    2    2     1     2    7.3830E+01  6.5045E-01   7.3180E+01  0.000E+00  0.000E+00  0.000E+00  1.08974E+03  1.684E+00  1.984E+01  1.389E-01  1.561E+00
   1    3    3     1     3    7.3180E+01  5.5490E-01   7.2625E+01  0.000E+00  0.000E+00  0.000E+00  1.08410E+03  1.677E+00  1.977E+01  1.186E-01  1.559E+00
   1    3    4     1     4    7.2625E+01  5.1113E-01   7.2114E+01  0.000E+00  0.000E+00  0.000E+00  1.07908E+03  1.671E+00  1.972E+01  1.094E-01  1.557E+00
   1    4    5     2     1    7.0114E+01  4.0857E-01   6.9705E+01  0.000E+00  0.000E+00  0.000E+00  1.07417E+03  2.238E+00  1.200E+01  7.800E-02  1.746E+00
   1    5    6     2     2    6.9705E+01  3.1387E-01   6.9391E+01  0.000E+00  0.000E+00  0.000E+00  1.06874E+03  2.231E+00  1.200E+01  6.000E-02  1.744E+00
   1    6    6     2     3    6.9391E+01  3.1350E-01   6.9078E+01  0.000E+00  0.000E+00  0.000E+00  1.06402E+03  2.225E+00  1.200E+01  6.000E-02  1.742E+00
   1    7    6     2     4    6.9078E+01  3.1314E-01   6.8765E+01  0.000E+00  0.000E+00  0.000E+00  1.05929E+03  2.219E+00  1.200E+01  6.000E-02  1.740E+00
   1    8    6     2     5    6.8765E+01  3.1278E-01   6.8452E+01  0.000E+00  0.000E+00  0.000E+00  1.05457E+03  2.213E+00  1.200E+01  6.000E-02  1.738E+00
   1    3    5     3     1    2.0000E+00  2.8252E-01   1.7175E+00  0.000E+00  0.000E+00  0.000E+00  1.07555E+03  1.909E+00  9.636E+00  7.227E-02  1.955E+00
   1    3    6     3     2    1.7175E+00  2.4905E-01   1.4684E+00  0.000E+00  0.000E+00  0.000E+00  1.07264E+03  1.727E+00  8.909E+00  6.682E-02  1.864E+00
   1    3    7     3     3    1.4684E+00  1.9718E-01   1.2712E+00  0.000E+00  0.000E+00  0.000E+00  1.06987E+03  1.555E+00  8.218E+00  5.547E-02  1.777E+00
   1    4    8     3     4    1.2712E+00  2.2567E-01   1.0456E+00  0.000E+00  0.000E+00  0.000E+00  1.06682E+03  1.364E+00  7.455E+00  6.709E-02  1.682E+00
   1    5    8     3     5    1.0456E+00  1.5790E-01   8.8768E-01  0.000E+00  0.000E+00  0.000E+00  1.06362E+03  1.164E+00  6.655E+00  4.991E-02  1.582E+00
   1    6    8     3     6    8.8768E-01  5.5980E-02   8.3170E-01  0.000E+00  0.000E+00  0.000E+00  1.06158E+03  1.036E+00  6.145E+00  1.844E-02  1.518E+00
   1    5   10     4     1    1.0000E+01  9.0919E-02   9.9091E+00  0.000E+00  0.000E+00  0.000E+00  1.07836E+03  6.368E-01  1.000E+01  2.500E-02  1.212E+00
   1    5    9     4     2    9.9091E+00  1.8158E-01   9.7275E+00  0.000E+00  0.000E+00  0.000E+00  1.07154E+03  6.315E-01  1.000E+01  5.000E-02  1.211E+00
   1    6    8     4     3    9.7275E+00  1.2689E-01   9.6006E+00  0.000E+00  0.000E+00  0.000E+00  1.06381E+03  6.256E-01  1.000E+01  3.500E-02  1.209E+00
   1    6    8     5     1    1.0432E+01  2.2686E-01   1.0205E+01  0.000E+00  0.000E+00  0.000E+00  1.05868E+03  6.790E-01  1.542E+01  6.166E-02  1.226E+00
   1    7    7     5     2    1.0205E+01  2.7894E-01   9.9265E+00  0.000E+00  0.000E+00  0.000E+00  1.05417E+03  6.732E-01  1.519E+01  7.594E-02  1.224E+00
   1    8    7     5     3    9.9265E+00  1.9221E-01   9.7343E+00  0.000E+00  0.000E+00  0.000E+00  1.04992E+03  6.676E-01  1.497E+01  5.241E-02  1.223E+00
   1    8    6     5     4    9.7343E+00  1.3577E-01   9.5985E+00  0.000E+00  0.000E+00  0.000E+00  1.04691E+03  6.637E-01  1.482E+01  3.706E-02  1.221E+00
   1    9    6     6     1    7.4350E+01  3.2071E-01   7.4029E+01  0.000E+00  0.000E+00  0.000E+00  1.04507E+03  2.345E+00  1.200E+01  6.000E-02  1.782E+00
   1   10    7     6     2    7.4029E+01  3.2035E-01   7.3709E+01  0.000E+00  0.000E+00  0.000E+00  1.04052E+03  2.339E+00  1.200E+01  6.000E-02  1.780E+00
   1   11    7     6     3    7.3709E+01  3.1998E-01   7.3389E+01  0.000E+00  0.000E+00  0.000E+00  1.03597E+03  2.333E+00  1.200E+01  6.000E-02  1.778E+00
   1   12    7     6     4    7.3389E+01  3.1962E-01   7.3069E+01  0.000E+00  0.000E+00  0.000E+00  1.03142E+03  2.327E+00  1.200E+01  6.000E-02  1.776E+00
   1   13    7     6     5    7.3069E+01  2.6423E-02   7.3043E+01  0.000E+00  0.000E+00  0.000E+00  1.02823E+03  2.324E+00  1.200E+01  2.400E-02  3.670E-01
   1   14    9     7     1    1.5000E+02  1.3357E+00   1.4866E+02  0.000E+00  0.000E+00  0.000E+00  1.03987E+03  2.288E+00  5.529E+01  5.593E-01  7.961E-01
   1   13    8     7     2    1.4866E+02  1.8241E+00   1.4684E+02  0.000E+00  0.000E+00  0.000E+00  1.03478E+03  2.279E+00  5.526E+01  6.148E-01  9.890E-01
   1   13    7     7     3    1.4684E+02  1.4287E+00   1.4541E+02  0.000E+00  0.000E+00  0.000E+00  1.02969E+03  2.271E+00  5.522E+01  5.585E-01  8.527E-01
   1   13    6     8     1    2.1845E+02  1.0881E+00   2.1737E+02  0.000E+00  0.000E+00  0.000E+00  1.02512E+03  3.240E+00  4.698E+01  4.788E-01  7.575E-01
   1   13    5     8     2    2.1737E+02  2.6202E-01   2.1710E+02  0.000E+00  0.000E+00  0.000E+00  1.01886E+03  3.237E+00  4.693E+01  4.782E-01  1.826E-01
   1   13    4     8     3    2.1710E+02 -1.6356E+00   2.1874E+02  0.000E+00  0.000E+00  0.000E+00  1.01262E+03  3.240E+00  4.698E+01  4.788E+00 -1.139E-01
   1   13    3     8     4    2.1874E+02 -2.8579E+00   2.2160E+02  0.000E+00  0.000E+00  0.000E+00  1.00638E+03  3.253E+00  4.717E+01  4.806E+00 -1.982E-01
   1   13    2     8     5    2.2160E+02 -1.6476E+00   2.2325E+02  0.000E+00  0.000E+00  0.000E+00  1.00014E+03  3.265E+00  4.735E+01  4.825E+00 -1.138E-01
   1   13    1     8     6    2.2325E+02 -1.4866E+00   2.2473E+02  0.000E+00  0.000E+00  0.000E+00  9.95149E+02  3.274E+00  4.747E+01  2.902E+00 -1.707E-01
   1    8    6     9     1    3.7005E+00  0.0000E+00   3.7005E+00  0.000E+00  0.000E+00  0.000E+00  1.08000E+03  1.248E+00  4.000E+00  0.000E+00  1.416E+00
   1    8    5     9     2    3.7005E+00  0.0000E+00   3.7005E+00  0.000E+00  0.000E+00  0.000E+00  1.07950E+03  1.248E+00  4.000E+00  0.000E+00  1.416E+00





UNSATURATED ZONE PACKAGE VOLUMETRIC BUDGET FOR  TIME STEP    30 STRESS PERIOD    5
  ------------------------------------------------------------------------------



     CUMULATIVE VOLUMES      L**3       RATES FOR THIS TIME STEP      L**3/T
     ------------------                 ------------------------

           IN:                                      IN:
           ---                                      ---
        INFILTRATION =    56878470.8205          INFILTRATION =           4.5480

          OUT:                                     OUT:
          ----                                     ----
              UZF ET =    18615641.4199                UZF ET =           4.5675
        UZF RECHARGE =       73224.0000          UZF RECHARGE =       0.0000E+00

            IN - OUT =    38189605.4006              IN - OUT =      -1.9467E-02

          STORAGE:                                 STORAGE:
          --------                                 --------
      STORAGE CHANGE =    38205141.6289        STORAGE CHANGE =      -1.9467E-02

 PERCENT DISCREPANCY IS DIFFERENCE BETWEEN IN-OUT MINUS CHANGE IN STORAGE
 DIVIDED BY THE AVERAGE OF IN AND OUT TIMES 100

 PERCENT DISCREPANCY =          -0.01     PERCENT DISCREPANCY =           0.00






1
  VOLUMETRIC BUDGET FOR AGRICULTURAL FIELDS AT  END OF TIME STEP   30, STRESS PERIOD   5
  ------------------------------------------------------------------------------

     CUMULATIVE VOLUMES      L**3       RATES FOR THIS TIME STEP      L**3/T
     ------------------                 ------------------------

           IN:                                      IN:
           ---                                      ---
           AG WELLS      =    39639340.0000             AG WELLS      =           0.0000
      DIVERSION SEGMENTS =     8250292.0000        DIVERSION SEGMENTS =           3.7005
           GW IRRIGATION =           0.0000             GW IRRIGATION =           0.0000
           SW IRRIGATION =           0.0000             SW IRRIGATION =           0.0000
        SYSTEM LOSSES GW =           0.0000          SYSTEM LOSSES GW =           0.0000
        SYSTEM LOSSES SW =           0.0000          SYSTEM LOSSES SW =           0.0000

                TOTAL IN =    47889632.0000                  TOTAL IN =           3.7005

          OUT:                                     OUT:
          ----                                     ----
           AG WELLS      =           0.0000             AG WELLS      =           0.0000
      DIVERSION SEGMENTS =           0.0000        DIVERSION SEGMENTS =           0.0000
           GW IRRIGATION =    39639340.0000             GW IRRIGATION =           0.0000
           SW IRRIGATION =     8250456.5000             SW IRRIGATION =           3.7005
        SYSTEM LOSSES GW =           0.0000          SYSTEM LOSSES GW =           0.0000
        SYSTEM LOSSES SW =           0.0000          SYSTEM LOSSES SW =           0.0000

               TOTAL OUT =    47889796.0000                 TOTAL OUT =           3.7005

                IN - OUT =        -164.0000                  IN - OUT =      -7.3910E-05

     PERCENT DISCREPANCY =          -0.00         PERCENT DISCREPANCY =          -0.00



1
  VOLUMETRIC BUDGET FOR ENTIRE MODEL AT END OF TIME STEP   30, STRESS PERIOD   5
  ------------------------------------------------------------------------------

     CUMULATIVE VOLUMES      L**3       RATES FOR THIS TIME STEP      L**3/T
     ------------------                 ------------------------

           IN:                                      IN:
           ---                                      ---
             STORAGE     =    60937732.0000               STORAGE     =           3.1106
       CONSTANT HEAD     =           0.0000         CONSTANT HEAD     =           0.0000
     HEAD DEP BOUNDS     =     3030241.0000       HEAD DEP BOUNDS     =           0.2858
      STREAM LEAKAGE     =   125947552.0000        STREAM LEAKAGE     =          13.4454
        UZF RECHARGE     =       73223.9531          UZF RECHARGE     =           0.0000
               GW ET     =           0.0000                 GW ET     =           0.0000
     SURFACE LEAKAGE     =           0.0000       SURFACE LEAKAGE     =           0.0000
           AG WELLS      =           0.0000             AG WELLS      =           0.0000

                TOTAL IN =   189988736.0000                  TOTAL IN =          16.8417

          OUT:                                     OUT:
          ----                                     ----
             STORAGE     =    34181436.0000               STORAGE     =           8.9229
       CONSTANT HEAD     =           0.0000         CONSTANT HEAD     =           0.0000
     HEAD DEP BOUNDS     =     3085172.5000       HEAD DEP BOUNDS     =           0.2911
      STREAM LEAKAGE     =   113035952.0000        STREAM LEAKAGE     =           7.6277
        UZF RECHARGE     =           0.0000          UZF RECHARGE     =           0.0000
               GW ET     =       50639.1836                 GW ET     =           0.0000
     SURFACE LEAKAGE     =           0.0000       SURFACE LEAKAGE     =           0.0000
           AG WELLS      =    39639340.0000             AG WELLS      =           0.0000

               TOTAL OUT =   189992544.0000                 TOTAL OUT =          16.8417

                IN - OUT =       -3808.0000                  IN - OUT =       4.3869E-05

     PERCENT DISCREPANCY =          -0.00         PERCENT DISCREPANCY =           0.00






         TIME SUMMARY AT END OF TIME STEP   30 IN STRESS PERIOD    5
                    SECONDS     MINUTES      HOURS       DAYS        YEARS
                    -----------------------------------------------------------
   TIME STEP LENGTH  87667.      1461.1      24.352      1.0147     2.77799E-03
 STRESS PERIOD TIME 2.63000E+06  43833.      730.56      30.440     8.33397E-02
         TOTAL TIME 1.06064E+07 1.76773E+05  2946.2      122.76     0.33610    
1
1
                            STRESS PERIOD NO.    6, LENGTH =   2630000.    
                            -----------------------------------------------

                              NUMBER OF TIME STEPS =    30

                               MULTIPLIER FOR DELT =     1.000

                            INITIAL TIME STEP SIZE =   87666.66    

 REUSING NON-PARAMETER GHB CELLS FROM LAST STRESS PERIOD

      2 GHB CELLS

 REUSING STREAM SEGMENT DATA FROM LAST STRESS PERIOD



            AREAL INFILTRATION RATE
 READING ON UNIT   19 WITH FORMAT: (FREE)              

            1           2           3           4           5           6           7           8           9          10
 ........................................................................................................................
   1   1.0000E-10  2.0000E-10   0.000       0.000       0.000       0.000       0.000       0.000       0.000       0.000    
   2   2.0000E-10  1.0000E-10  2.0000E-10   0.000       0.000      8.0000E-10  8.0000E-10  5.0000E-10   0.000       0.000    
   3    0.000      5.0000E-10  1.0000E-10  1.0000E-10  8.0000E-10  8.0000E-10  5.0000E-10  5.0000E-10   0.000       0.000    
   4   8.0000E-10  5.0000E-10  1.0000E-10  1.0000E-10  1.0000E-10  1.0000E-10  1.0000E-10  1.0000E-10  2.0000E-10   0.000    
   5   8.0000E-10  5.0000E-10  1.0000E-10  1.0000E-10  1.0000E-10  1.0000E-10  1.0000E-10  1.0000E-10  1.0000E-10  1.0000E-10
   6   8.0000E-10  5.0000E-10  5.0000E-10  2.0000E-10  2.0000E-10  1.0000E-10  1.0000E-10  1.0000E-10  1.0000E-10  5.0000E-10
   7   8.0000E-10  5.0000E-10  5.0000E-10  2.0000E-10  2.0000E-10  1.0000E-10  1.0000E-10  2.0000E-10  2.0000E-10   0.000    
   8    0.000      5.0000E-10  5.0000E-10  2.0000E-10  2.0000E-10  1.0000E-10  1.0000E-10  2.0000E-10  5.0000E-10   0.000    
   9    0.000      5.0000E-10  5.0000E-10  2.0000E-10  2.0000E-10  1.0000E-10  1.0000E-10  2.0000E-10  5.0000E-10   0.000    
  10    0.000      5.0000E-10  5.0000E-10  2.0000E-10  2.0000E-10  1.0000E-10  1.0000E-10  2.0000E-10  5.0000E-10  8.0000E-10
  11    0.000      1.0000E-10  1.0000E-10  1.0000E-10  1.0000E-10  1.0000E-10  1.0000E-10  2.0000E-10  5.0000E-10   0.000    
  12   1.0000E-10  1.0000E-10  1.0000E-10  1.0000E-10  1.0000E-10  1.0000E-10  1.0000E-10  1.0000E-10  2.0000E-10   0.000    
  13   1.0000E-10  1.0000E-10  2.0000E-10  2.0000E-10  2.0000E-10  2.0000E-10  2.0000E-10  1.0000E-10  1.0000E-10   0.000    
  14    0.000      2.0000E-10  5.0000E-10  5.0000E-10  5.0000E-10  5.0000E-10  5.0000E-10  2.0000E-10  1.0000E-10   0.000    
  15    0.000       0.000      8.0000E-10  8.0000E-10  8.0000E-10  8.0000E-10   0.000       0.000       0.000       0.000    

                  ET RATE =  5.000000E-08

 USING ET EXTINCTION DEPTH FROM PREVIOUS STRESS PERIOD. CURRENT PERIOD IS:       6

 USING EXTINCTION WATER CONTENT FROM PREVIOUS STRESS PERIOD. CURRENT PERIOD IS:       6

 USING AIR ENTRY PRESSURE FROM PREVIOUS STRESS PERIOD. CURRENT PERIOD IS:       6

 USING ROOT PRESSURE HEAD FROM PREVIOUS STRESS PERIOD. CURRENT PERIOD IS:       6

 USING ROOT ACTIVITY FROM PREVIOUS STRESS PERIOD. CURRENT PERIOD IS:       6

 PROCESSING AG STRESS PERIOD DATA

 READING AG STRESS PERIOD DATA

 READING IRRIGATION SEGMENT

 READING IRRIGATION WELL

 READING SUPPLEMENTAL WELL

 END PROCESSING AG STRESS PERIOD DATA OPTIONS
 
 SOLVING FOR HEAD 
                                                   Max.-Head-Change                         Max.-Flux-Residual
  Residual-Control   Outer-Iter.   Inner-Iter.     Column Row Layer    Maximum-Head-Change  Column Row Layer    Maximum-Flux-Residual          L2-NORM 
          0                 1           2             4   13     1       0.1559500855E-01       4   13    1         0.8994253376E+00      0.2301808900E+01
          0                 2           2             4    7     1      -0.9820470986E-02       5    7    1        -0.5277236849E+00      0.1315467393E+01
          0                 3           2             4    7     1       0.9097636294E-02       5    7    1         0.5020240927E+00      0.1229387375E+01
          0                 4           2             4    7     1      -0.3660227900E-03       4    7    1        -0.2075941500E-01      0.5083399219E-01
          0                 5           1             4    7     1       0.8423376533E-05       4    7    1         0.4909956251E-03      0.1202539124E-02

    ------------------------------------------------
       NWT REQUIRED            5 OUTER ITERATIONS 
       AND A TOTAL OF          9 INNER ITERATIONS.
    ------------------------------------------------

 NO OUTPUT CONTROL FOR STRESS PERIOD    6   TIME STEP    1
 
 SOLVING FOR HEAD 
                                                   Max.-Head-Change                         Max.-Flux-Residual
  Residual-Control   Outer-Iter.   Inner-Iter.     Column Row Layer    Maximum-Head-Change  Column Row Layer    Maximum-Flux-Residual          L2-NORM 
          0                 1           2             4   13     1       0.1717411960E-01       4   13    1         0.9909689827E+00      0.2403687601E+01
          0                 2           2             4   13     1      -0.1653023702E-02       4   13    1        -0.9807138862E-01      0.2368140720E+00
          0                 3           2             4    7     1      -0.3157716666E-02       5    8    1        -0.1699350589E+00      0.4168640740E+00
          0                 4           2             4    7     1       0.2941798694E-02       5    8    1         0.1623525725E+00      0.3976545975E+00
          0                 5           2             4    7     1       0.1208563289E-03       4    7    1         0.6668246129E-02      0.1648459833E-01
          0                 6           1             4    7     1       0.6696344319E-04       4    8    1         0.3694756900E-02      0.9154788541E-02

    ------------------------------------------------
       NWT REQUIRED            6 OUTER ITERATIONS 
       AND A TOTAL OF         11 INNER ITERATIONS.
    ------------------------------------------------

 NO OUTPUT CONTROL FOR STRESS PERIOD    6   TIME STEP    2
 
 SOLVING FOR HEAD 
                                                   Max.-Head-Change                         Max.-Flux-Residual
  Residual-Control   Outer-Iter.   Inner-Iter.     Column Row Layer    Maximum-Head-Change  Column Row Layer    Maximum-Flux-Residual          L2-NORM 
          0                 1           2             2   13     1       0.1559049661E-01       4   13    1         0.8945882916E+00      0.2278051881E+01
          0                 2           2             4    7     1      -0.2033417659E-01       4    7    1        -0.1091743680E+01      0.2698809059E+01
          0                 3           2             4    7     1       0.1138970427E-01       4    7    1         0.6284716680E+00      0.1541458436E+01
          0                 4           2             4    7     1       0.8206087467E-02       5    8    1         0.4528140964E+00      0.1109145617E+01
          0                 5           2             4    7     1      -0.3306269969E-03       4    7    1        -0.1875090355E-01      0.4592824884E-01
          0                 6           1             4    7     1       0.7990087820E-05       4    7    1         0.4657078143E-03      0.1140915313E-02

    ------------------------------------------------
       NWT REQUIRED            6 OUTER ITERATIONS 
       AND A TOTAL OF         11 INNER ITERATIONS.
    ------------------------------------------------

 NO OUTPUT CONTROL FOR STRESS PERIOD    6   TIME STEP    3
 
 SOLVING FOR HEAD 
                                                   Max.-Head-Change                         Max.-Flux-Residual
  Residual-Control   Outer-Iter.   Inner-Iter.     Column Row Layer    Maximum-Head-Change  Column Row Layer    Maximum-Flux-Residual          L2-NORM 
          0                 1           2             2   13     1       0.1463826220E-01       2   13    1         0.8292889551E+00      0.2178241999E+01
          0                 2           2             4   13     1      -0.1748716846E-02       4   13    1        -0.1080087121E+00      0.2263065410E+00
          0                 3           2             4    7     1      -0.2303971389E-01       5    8    1        -0.1237283111E+01      0.3043578478E+01
          0                 4           2             4    7     1       0.2406323355E-01       5    8    1         0.1327788313E+01      0.3252395878E+01
          0                 5           2             4    7     1      -0.9617481057E-03       5    8    1        -0.5456478102E-01      0.1336456941E+00
          0                 6           1             4    7     1       0.1577912542E-04       5    8    1         0.9202236513E-03      0.2253924884E-02

    ------------------------------------------------
       NWT REQUIRED            6 OUTER ITERATIONS 
       AND A TOTAL OF         11 INNER ITERATIONS.
    ------------------------------------------------

 NO OUTPUT CONTROL FOR STRESS PERIOD    6   TIME STEP    4
 
 SOLVING FOR HEAD 
                                                   Max.-Head-Change                         Max.-Flux-Residual
  Residual-Control   Outer-Iter.   Inner-Iter.     Column Row Layer    Maximum-Head-Change  Column Row Layer    Maximum-Flux-Residual          L2-NORM 
          0                 1           2             2   13     1       0.1369387992E-01       2   13    1         0.7758794708E+00      0.2076737269E+01
          0                 2           2             2   13     1      -0.1273166884E-02       4   13    1        -0.7418397675E-01      0.2053380243E+00
          0                 3           2             4    7     1      -0.2304406095E-01       5    8    1        -0.1237585113E+01      0.3044340901E+01
          0                 4           2             4    7     1       0.2406697753E-01       5    8    1         0.1327999789E+01      0.3252910153E+01
          0                 5           2             4    7     1      -0.9618971177E-03       5    8    1        -0.5457343381E-01      0.1336667360E+00
          0                 6           1             4    7     1       0.1578096360E-04       5    8    1         0.9203333918E-03      0.2254191064E-02

    ------------------------------------------------
       NWT REQUIRED            6 OUTER ITERATIONS 
       AND A TOTAL OF         11 INNER ITERATIONS.
    ------------------------------------------------

 NO OUTPUT CONTROL FOR STRESS PERIOD    6   TIME STEP    5
 
 SOLVING FOR HEAD 
                                                   Max.-Head-Change                         Max.-Flux-Residual
  Residual-Control   Outer-Iter.   Inner-Iter.     Column Row Layer    Maximum-Head-Change  Column Row Layer    Maximum-Flux-Residual          L2-NORM 
          0                 1           2             2   13     1       0.1282182879E-01       2   13    1         0.7265376456E+00      0.1983897816E+01
          0                 2           2             2   13     1      -0.1193666499E-02       2   13    1        -0.6953047294E-01      0.1963667193E+00
          0                 3           2             4    7     1      -0.2304601290E-01       5    8    1        -0.1237751655E+01      0.3044688733E+01
          0                 4           2             4    7     1       0.2406820538E-01       5    8    1         0.1328071965E+01      0.3253083280E+01
          0                 5           2             4    7     1      -0.9619459868E-03       5    8    1        -0.5457638601E-01      0.1336738230E+00
          0                 6           1             4    7     1       0.1578156625E-04       5    8    1         0.9203708414E-03      0.2254285273E-02

    ------------------------------------------------
       NWT REQUIRED            6 OUTER ITERATIONS 
       AND A TOTAL OF         11 INNER ITERATIONS.
    ------------------------------------------------

 NO OUTPUT CONTROL FOR STRESS PERIOD    6   TIME STEP    6
 
 SOLVING FOR HEAD 
                                                   Max.-Head-Change                         Max.-Flux-Residual
  Residual-Control   Outer-Iter.   Inner-Iter.     Column Row Layer    Maximum-Head-Change  Column Row Layer    Maximum-Flux-Residual          L2-NORM 
          0                 1           2             2   13     1       0.1201705957E-01       2   13    1         0.6809847051E+00      0.1901530322E+01
          0                 2           2             2   13     1      -0.1120054684E-02       2   13    1        -0.6524750230E-01      0.1884021006E+00
          0                 3           2             4    7     1      -0.2304794557E-01       5    8    1        -0.1237911001E+01      0.3045024982E+01
          0                 4           2             4    7     1       0.2406939499E-01       5    8    1         0.1328141613E+01      0.3253250620E+01
          0                 5           2             4    7     1      -0.9619933337E-03       5    8    1        -0.5457923486E-01      0.1336806728E+00
          0                 6           1             4    7     1       0.1578215030E-04       5    8    1         0.9204069770E-03      0.2254373854E-02

    ------------------------------------------------
       NWT REQUIRED            6 OUTER ITERATIONS 
       AND A TOTAL OF         11 INNER ITERATIONS.
    ------------------------------------------------

 NO OUTPUT CONTROL FOR STRESS PERIOD    6   TIME STEP    7
 
 SOLVING FOR HEAD 
                                                   Max.-Head-Change                         Max.-Flux-Residual
  Residual-Control   Outer-Iter.   Inner-Iter.     Column Row Layer    Maximum-Head-Change  Column Row Layer    Maximum-Flux-Residual          L2-NORM 
          0                 1           2             2   13     1       0.1127488610E-01       2   13    1         0.6389597900E+00      0.1828090747E+01
          0                 2           2             4    7     1      -0.1080635670E-02       2   13    1        -0.6128465091E-01      0.1812949011E+00
          0                 3           2             4    7     1      -0.2304986865E-01       5    8    1        -0.1238063739E+01      0.3045350783E+01
          0                 4           2             4    7     1       0.2407055567E-01       5    8    1         0.1328209251E+01      0.3253413411E+01
          0                 5           2             4    7     1      -0.9620395286E-03       5    8    1        -0.5458200152E-01      0.1336873230E+00
          0                 6           1             4    7     1       0.1578271956E-04       5    8    1         0.9204420580E-03      0.2254454699E-02

    ------------------------------------------------
       NWT REQUIRED            6 OUTER ITERATIONS 
       AND A TOTAL OF         11 INNER ITERATIONS.
    ------------------------------------------------

 NO OUTPUT CONTROL FOR STRESS PERIOD    6   TIME STEP    8
 
 SOLVING FOR HEAD 
                                                   Max.-Head-Change                         Max.-Flux-Residual
  Residual-Control   Outer-Iter.   Inner-Iter.     Column Row Layer    Maximum-Head-Change  Column Row Layer    Maximum-Flux-Residual          L2-NORM 
          0                 1           2             4    7     1       0.1093650718E-01       2   13    1         0.6002116027E+00      0.1762252545E+01
          0                 2           2             4    7     1      -0.1068072689E-02       4    7    1        -0.5772407066E-01      0.1749143893E+00
          0                 3           2             4    7     1      -0.2305177308E-01       5    8    1        -0.1238210061E+01      0.3045666317E+01
          0                 4           2             4    7     1       0.2407168250E-01       5    8    1         0.1328274653E+01      0.3253571077E+01
          0                 5           2             4    7     1      -0.9620843767E-03       5    8    1        -0.5458467681E-01      0.1336937731E+00
          0                 6           1             4    7     1       0.1578327202E-04       5    8    1         0.9204759554E-03      0.2254537468E-02

    ------------------------------------------------
       NWT REQUIRED            6 OUTER ITERATIONS 
       AND A TOTAL OF         11 INNER ITERATIONS.
    ------------------------------------------------

 NO OUTPUT CONTROL FOR STRESS PERIOD    6   TIME STEP    9
 
 SOLVING FOR HEAD 
                                                   Max.-Head-Change                         Max.-Flux-Residual
  Residual-Control   Outer-Iter.   Inner-Iter.     Column Row Layer    Maximum-Head-Change  Column Row Layer    Maximum-Flux-Residual          L2-NORM 
          0                 1           2             4    7     1       0.1080582035E-01       4    7    1         0.5682635261E+00      0.1702914929E+01
          0                 2           2             4    7     1      -0.1055360483E-02       4    7    1        -0.5705442882E-01      0.1691594288E+00
          0                 3           2             4    7     1      -0.2305366116E-01       5    8    1        -0.1238350615E+01      0.3045972521E+01
          0                 4           2             4    7     1       0.2407278216E-01       5    8    1         0.1328338223E+01      0.3253724580E+01
          0                 5           2             4    7     1      -0.9621281434E-03       5    8    1        -0.5458727719E-01      0.1337000486E+00
          0                 6           1             4    7     1       0.1578381194E-04       5    8    1         0.9205089361E-03      0.2254614152E-02

    ------------------------------------------------
       NWT REQUIRED            6 OUTER ITERATIONS 
       AND A TOTAL OF         11 INNER ITERATIONS.
    ------------------------------------------------

 NO OUTPUT CONTROL FOR STRESS PERIOD    6   TIME STEP   10
 
 SOLVING FOR HEAD 
                                                   Max.-Head-Change                         Max.-Flux-Residual
  Residual-Control   Outer-Iter.   Inner-Iter.     Column Row Layer    Maximum-Head-Change  Column Row Layer    Maximum-Flux-Residual          L2-NORM 
          0                 1           2             4    7     1       0.1067337968E-01       4    7    1         0.5614579382E+00      0.1649153944E+01
          0                 2           2             4    7     1      -0.1042477667E-02       4    7    1        -0.5637387355E-01      0.1639362208E+00
          0                 3           2             4    7     1      -0.2305553217E-01       5    8    1        -0.1238485553E+01      0.3046269444E+01
          0                 4           2             4    7     1       0.2407385243E-01       5    8    1         0.1328399853E+01      0.3253873617E+01
          0                 5           2             4    7     1      -0.9621707400E-03       5    8    1        -0.5458979820E-01      0.1337061453E+00
          0                 6           1             4    7     1       0.1578433685E-04       5    8    1         0.9205409028E-03      0.2254688833E-02

    ------------------------------------------------
       NWT REQUIRED            6 OUTER ITERATIONS 
       AND A TOTAL OF         11 INNER ITERATIONS.
    ------------------------------------------------

 NO OUTPUT CONTROL FOR STRESS PERIOD    6   TIME STEP   11
 
 SOLVING FOR HEAD 
                                                   Max.-Head-Change                         Max.-Flux-Residual
  Residual-Control   Outer-Iter.   Inner-Iter.     Column Row Layer    Maximum-Head-Change  Column Row Layer    Maximum-Flux-Residual          L2-NORM 
          0                 1           2             4    7     1       0.1054006114E-01       4    7    1         0.5545910068E+00      0.1600216533E+01
          0                 2           2             4    7     1      -0.1029509450E-02       4    7    1        -0.5568718336E-01      0.1591767563E+00
          0                 3           2             4    7     1      -0.2305738239E-01       5    8    1        -0.1238615135E+01      0.3046557070E+01
          0                 4           2             4    7     1       0.2407489525E-01       5    8    1         0.1328459678E+01      0.3254018489E+01
          0                 5           2             4    7     1      -0.9622122442E-03       5    8    1        -0.5459224549E-01      0.1337120651E+00
          0                 6           1             4    7     1       0.1578484854E-04       5    8    1         0.9205719393E-03      0.2254764593E-02

    ------------------------------------------------
       NWT REQUIRED            6 OUTER ITERATIONS 
       AND A TOTAL OF         11 INNER ITERATIONS.
    ------------------------------------------------

 NO OUTPUT CONTROL FOR STRESS PERIOD    6   TIME STEP   12
 
 SOLVING FOR HEAD 
                                                   Max.-Head-Change                         Max.-Flux-Residual
  Residual-Control   Outer-Iter.   Inner-Iter.     Column Row Layer    Maximum-Head-Change  Column Row Layer    Maximum-Flux-Residual          L2-NORM 
          0                 1           2             4    7     1       0.1040559220E-01       4    7    1         0.5476489645E+00      0.1555416272E+01
          0                 2           2             4    7     1      -0.1016429322E-02       4    7    1        -0.5499298154E-01      0.1548114282E+00
          0                 3           2             4    7     1      -0.2305921590E-01       5    8    1        -0.1238739833E+01      0.3046836848E+01
          0                 4           2             4    7     1       0.2407591306E-01       5    8    1         0.1328517852E+01      0.3254159579E+01
          0                 5           2             4    7     1      -0.9622527526E-03       5    8    1        -0.5459462523E-01      0.1337178446E+00
          0                 6           1             4    7     1       0.1578534745E-04       5    8    1         0.9206021334E-03      0.2254840895E-02

    ------------------------------------------------
       NWT REQUIRED            6 OUTER ITERATIONS 
       AND A TOTAL OF         11 INNER ITERATIONS.
    ------------------------------------------------

 NO OUTPUT CONTROL FOR STRESS PERIOD    6   TIME STEP   13
 
 SOLVING FOR HEAD 
                                                   Max.-Head-Change                         Max.-Flux-Residual
  Residual-Control   Outer-Iter.   Inner-Iter.     Column Row Layer    Maximum-Head-Change  Column Row Layer    Maximum-Flux-Residual          L2-NORM 
          0                 1           2             4    7     1       0.1027080228E-01       4    7    1         0.5406768682E+00      0.1514260596E+01
          0                 2           2             4    7     1      -0.1003317964E-02       4    7    1        -0.5429577386E-01      0.1507976117E+00
          0                 3           2             4    7     1      -0.2306102487E-01       5    8    1        -0.1238859633E+01      0.3047107940E+01
          0                 4           2             4    7     1       0.2407690318E-01       5    8    1         0.1328574254E+01      0.3254296542E+01
          0                 5           2             4    7     1      -0.9622921596E-03       5    8    1        -0.5459693253E-01      0.1337234574E+00
          0                 6           1             4    7     1       0.1578583315E-04       5    8    1         0.9206313853E-03      0.2254917041E-02

    ------------------------------------------------
       NWT REQUIRED            6 OUTER ITERATIONS 
       AND A TOTAL OF         11 INNER ITERATIONS.
    ------------------------------------------------

 NO OUTPUT CONTROL FOR STRESS PERIOD    6   TIME STEP   14
 
 SOLVING FOR HEAD 
                                                   Max.-Head-Change                         Max.-Flux-Residual
  Residual-Control   Outer-Iter.   Inner-Iter.     Column Row Layer    Maximum-Head-Change  Column Row Layer    Maximum-Flux-Residual          L2-NORM 
          0                 1           2             4    7     1       0.1013537098E-01       4    7    1         0.5336585340E+00      0.1476242712E+01
          0                 2           2             4    7     1      -0.9901442122E-03       4    7    1        -0.5359394193E-01      0.1470827034E+00
          0                 3           2             4    7     1      -0.2306281368E-01       5    8    1        -0.1238974972E+01      0.3047371428E+01
          0                 4           2             4    7     1       0.2407786808E-01       5    8    1         0.1328629034E+01      0.3254429741E+01
          0                 5           2             4    7     1      -0.9623305626E-03       5    8    1        -0.5459917352E-01      0.1337288903E+00
          0                 6           1             4    7     1       0.1578630631E-04       5    8    1         0.9206598029E-03      0.2254978069E-02

    ------------------------------------------------
       NWT REQUIRED            6 OUTER ITERATIONS 
       AND A TOTAL OF         11 INNER ITERATIONS.
    ------------------------------------------------

 NO OUTPUT CONTROL FOR STRESS PERIOD    6   TIME STEP   15
 
 SOLVING FOR HEAD 
                                                   Max.-Head-Change                         Max.-Flux-Residual
  Residual-Control   Outer-Iter.   Inner-Iter.     Column Row Layer    Maximum-Head-Change  Column Row Layer    Maximum-Flux-Residual          L2-NORM 
          0                 1           2             4    7     1       0.1000009053E-01       4    7    1         0.5266365397E+00      0.1441028452E+01
          0                 2           2             4    7     1      -0.9769851280E-03       4    7    1        -0.5289174366E-01      0.1436384174E+00
          0                 3           2             4    7     1      -0.2306458142E-01       5    8    1        -0.1239086170E+01      0.3047627466E+01
          0                 4           2             4    7     1       0.2407881204E-01       5    8    1         0.1328682453E+01      0.3254556669E+01
          0                 5           2             4    7     1      -0.9623681323E-03       5    8    1        -0.5460135882E-01      0.1337298899E+00
          0                 6           1             4    7     1       0.1578676961E-04       5    8    1         0.9206875072E-03      0.2254929561E-02

    ------------------------------------------------
       NWT REQUIRED            6 OUTER ITERATIONS 
       AND A TOTAL OF         11 INNER ITERATIONS.
    ------------------------------------------------

 NO OUTPUT CONTROL FOR STRESS PERIOD    6   TIME STEP   16
 
 SOLVING FOR HEAD 
                                                   Max.-Head-Change                         Max.-Flux-Residual
  Residual-Control   Outer-Iter.   Inner-Iter.     Column Row Layer    Maximum-Head-Change  Column Row Layer    Maximum-Flux-Residual          L2-NORM 
          0                 1           2             4    7     1       0.9864597193E-02       4    7    1         0.5195927698E+00      0.1408255309E+01
          0                 2           2             4    7     1      -0.9638053306E-03       4    7    1        -0.5218736745E-01      0.1404268085E+00
          0                 3           2             4    7     1      -0.2306632611E-01       5    8    1        -0.1239193165E+01      0.3047876287E+01
          0                 4           2             4    7     1       0.2407973060E-01       5    8    1         0.1328734267E+01      0.3254679787E+01
          0                 5           2             4    7     1      -0.9607862232E-03       5    8    1        -0.5451168738E-01      0.1335056316E+00
          0                 6           1             4    7     1       0.1419253998E-04       5    8    1         0.8277580025E-03      0.2027196955E-02

    ------------------------------------------------
       NWT REQUIRED            6 OUTER ITERATIONS 
       AND A TOTAL OF         11 INNER ITERATIONS.
    ------------------------------------------------

 NO OUTPUT CONTROL FOR STRESS PERIOD    6   TIME STEP   17
 
 SOLVING FOR HEAD 
                                                   Max.-Head-Change                         Max.-Flux-Residual
  Residual-Control   Outer-Iter.   Inner-Iter.     Column Row Layer    Maximum-Head-Change  Column Row Layer    Maximum-Flux-Residual          L2-NORM 
          0                 1           2             4    7     1       0.9729638429E-02       4    7    1         0.5125675485E+00      0.1377660761E+01
          0                 2           2             4    7     1      -0.9506775286E-03       4    7    1        -0.5148484582E-01      0.1374255961E+00
          0                 3           2             4    7     1      -0.2306807600E-01       5    8    1        -0.1239298031E+01      0.3048122070E+01
          0                 4           2             4    7     1       0.2408065812E-01       5    8    1         0.1328778870E+01      0.3254803924E+01
          0                 5           2             4    7     1      -0.9624416060E-03       5    8    1        -0.5459773626E-01      0.1337314160E+00
          0                 6           1             4    7     1       0.1578767492E-04       5    8    1         0.9205472288E-03      0.2254816502E-02

    ------------------------------------------------
       NWT REQUIRED            6 OUTER ITERATIONS 
       AND A TOTAL OF         11 INNER ITERATIONS.
    ------------------------------------------------

 NO OUTPUT CONTROL FOR STRESS PERIOD    6   TIME STEP   18
 
 SOLVING FOR HEAD 
                                                   Max.-Head-Change                         Max.-Flux-Residual
  Residual-Control   Outer-Iter.   Inner-Iter.     Column Row Layer    Maximum-Head-Change  Column Row Layer    Maximum-Flux-Residual          L2-NORM 
          0                 1           2             4    7     1       0.9594829985E-02       4    7    1         0.5055404656E+00      0.1349011102E+01
          0                 2           2             4    7     1      -0.9375643442E-03       4    7    1        -0.5078213773E-01      0.1346114840E+00
          0                 3           2             4    7     1      -0.2306977596E-01       5    8    1        -0.1239397597E+01      0.3048357269E+01
          0                 4           2             4    7     1       0.2408153466E-01       5    8    1         0.1328828030E+01      0.3254924013E+01
          0                 5           2             4    7     1      -0.9624764921E-03       5    8    1        -0.5459974764E-01      0.1337363195E+00
          0                 6           1             4    7     1       0.1578810439E-04       5    8    1         0.9205727256E-03      0.2254875153E-02

    ------------------------------------------------
       NWT REQUIRED            6 OUTER ITERATIONS 
       AND A TOTAL OF         11 INNER ITERATIONS.
    ------------------------------------------------

 NO OUTPUT CONTROL FOR STRESS PERIOD    6   TIME STEP   19
 
 SOLVING FOR HEAD 
                                                   Max.-Head-Change                         Max.-Flux-Residual
  Residual-Control   Outer-Iter.   Inner-Iter.     Column Row Layer    Maximum-Head-Change  Column Row Layer    Maximum-Flux-Residual          L2-NORM 
          0                 1           2             4    7     1       0.9460877634E-02       4    7    1         0.4985507641E+00      0.1322105003E+01
          0                 2           2             4    7     1      -0.9245344311E-03       4    7    1        -0.5008316756E-01      0.1319652602E+00
          0                 3           2             4    7     1      -0.2307144786E-01       5    8    1        -0.1239493667E+01      0.3048585760E+01
          0                 4           2             4    7     1       0.2408238766E-01       5    8    1         0.1328875754E+01      0.3255037577E+01
          0                 5           2             4    7     1      -0.9625104412E-03       5    8    1        -0.5460170027E-01      0.1337367508E+00
          0                 6           1             4    7     1       0.1578852266E-04       5    8    1         0.9205975100E-03      0.2254818171E-02

    ------------------------------------------------
       NWT REQUIRED            6 OUTER ITERATIONS 
       AND A TOTAL OF         11 INNER ITERATIONS.
    ------------------------------------------------

 NO OUTPUT CONTROL FOR STRESS PERIOD    6   TIME STEP   20
 
 SOLVING FOR HEAD 
                                                   Max.-Head-Change                         Max.-Flux-Residual
  Residual-Control   Outer-Iter.   Inner-Iter.     Column Row Layer    Maximum-Head-Change  Column Row Layer    Maximum-Flux-Residual          L2-NORM 
          0                 1           2             4    7     1       0.9327373666E-02       4    7    1         0.4915758515E+00      0.1296771085E+01
          0                 2           2             4    7     1      -0.9098377415E-03       4    7    1        -0.4929386787E-01      0.1292931086E+00
          0                 3           2             4    7     1      -0.2307733427E-01       5    8    1        -0.1239813842E+01      0.3049365406E+01
          0                 4           2             4    7     1       0.2408585019E-01       5    8    1         0.1329067318E+01      0.3255503518E+01
          0                 5           2             4    7     1      -0.9626482514E-03       5    8    1        -0.5460953863E-01      0.1337514477E+00
          0                 6           1             4    7     1       0.1579022238E-04       5    8    1         0.9206969253E-03      0.2254934795E-02

    ------------------------------------------------
       NWT REQUIRED            6 OUTER ITERATIONS 
       AND A TOTAL OF         11 INNER ITERATIONS.
    ------------------------------------------------

 NO OUTPUT CONTROL FOR STRESS PERIOD    6   TIME STEP   21
 
 SOLVING FOR HEAD 
                                                   Max.-Head-Change                         Max.-Flux-Residual
  Residual-Control   Outer-Iter.   Inner-Iter.     Column Row Layer    Maximum-Head-Change  Column Row Layer    Maximum-Flux-Residual          L2-NORM 
          0                 1           2             4    7     1       0.9194719572E-02       4    7    1         0.4846389856E+00      0.1272851640E+01
          0                 2           2             4    7     1      -0.8986444956E-03       4    7    1        -0.4869198902E-01      0.1271122155E+00
          0                 3           2             4    7     1      -0.2307471527E-01       5    8    1        -0.1239675638E+01      0.3049023882E+01
          0                 4           2             4    7     1       0.2408402571E-01       5    8    1         0.1328967033E+01      0.3255257928E+01
          0                 5           2             4    7     1      -0.9625756356E-03       5    8    1        -0.5460543507E-01      0.1337413890E+00
          0                 6           1             4    7     1       0.1578932559E-04       5    8    1         0.9206448640E-03      0.2254806767E-02

    ------------------------------------------------
       NWT REQUIRED            6 OUTER ITERATIONS 
       AND A TOTAL OF         11 INNER ITERATIONS.
    ------------------------------------------------

 NO OUTPUT CONTROL FOR STRESS PERIOD    6   TIME STEP   22
 
 SOLVING FOR HEAD 
                                                   Max.-Head-Change                         Max.-Flux-Residual
  Residual-Control   Outer-Iter.   Inner-Iter.     Column Row Layer    Maximum-Head-Change  Column Row Layer    Maximum-Flux-Residual          L2-NORM 
          0                 1           2             4    7     1       0.9063305332E-02       4    7    1         0.4777609844E+00      0.1250229100E+01
          0                 2           2             4    7     1      -0.8858614635E-03       4    7    1        -0.4800418831E-01      0.1248796531E+00
          0                 3           2             4    7     1      -0.2307631876E-01       5    8    1        -0.1239762505E+01      0.3049235220E+01
          0                 4           2             4    7     1       0.2408482431E-01       5    8    1         0.1329011373E+01      0.3255366660E+01
          0                 5           2             4    7     1      -0.9626074196E-03       5    8    1        -0.5460724925E-01      0.1337458321E+00
          0                 6           1             4    7     1       0.1578971719E-04       5    8    1         0.9206678749E-03      0.2254869112E-02

    ------------------------------------------------
       NWT REQUIRED            6 OUTER ITERATIONS 
       AND A TOTAL OF         11 INNER ITERATIONS.
    ------------------------------------------------

 NO OUTPUT CONTROL FOR STRESS PERIOD    6   TIME STEP   23
 
 SOLVING FOR HEAD 
                                                   Max.-Head-Change                         Max.-Flux-Residual
  Residual-Control   Outer-Iter.   Inner-Iter.     Column Row Layer    Maximum-Head-Change  Column Row Layer    Maximum-Flux-Residual          L2-NORM 
          0                 1           2             4    7     1       0.8932682388E-02       4    7    1         0.4709176679E+00      0.1228784978E+01
          0                 2           2             4    7     1      -0.8731554006E-03       4    7    1        -0.4731985591E-01      0.1227619616E+00
          0                 3           2             4    7     1      -0.2307789685E-01       5    8    1        -0.1239846382E+01      0.3049440678E+01
          0                 4           2             4    7     1       0.2408560172E-01       5    8    1         0.1329045907E+01      0.3255468844E+01
          0                 5           2             4    7     1      -0.9626383602E-03       4    8    1        -0.5460610215E-01      0.1337452799E+00
          0                 6           1             4    7     1       0.1579009827E-04       4    8    1         0.9206342941E-03      0.2254787780E-02

    ------------------------------------------------
       NWT REQUIRED            6 OUTER ITERATIONS 
       AND A TOTAL OF         11 INNER ITERATIONS.
    ------------------------------------------------

 NO OUTPUT CONTROL FOR STRESS PERIOD    6   TIME STEP   24
 
 SOLVING FOR HEAD 
                                                   Max.-Head-Change                         Max.-Flux-Residual
  Residual-Control   Outer-Iter.   Inner-Iter.     Column Row Layer    Maximum-Head-Change  Column Row Layer    Maximum-Flux-Residual          L2-NORM 
          0                 1           2             4    7     1       0.8803490008E-02       4    7    1         0.4641449795E+00      0.1208422320E+01
          0                 2           2             4    7     1      -0.8605884907E-03       4    7    1        -0.4664258621E-01      0.1207484122E+00
          0                 3           2             4    7     1      -0.2307945189E-01       5    8    1        -0.1239927620E+01      0.3049641140E+01
          0                 4           2             4    7     1       0.2408636460E-01       5    8    1         0.1329088073E+01      0.3255572417E+01
          0                 5           2             4    7     1      -0.9626687227E-03       4    8    1        -0.5460783149E-01      0.1337495012E+00
          0                 6           1             4    7     1       0.1579047218E-04       4    8    1         0.9206562465E-03      0.2254835640E-02

    ------------------------------------------------
       NWT REQUIRED            6 OUTER ITERATIONS 
       AND A TOTAL OF         11 INNER ITERATIONS.
    ------------------------------------------------

 NO OUTPUT CONTROL FOR STRESS PERIOD    6   TIME STEP   25
 
 SOLVING FOR HEAD 
                                                   Max.-Head-Change                         Max.-Flux-Residual
  Residual-Control   Outer-Iter.   Inner-Iter.     Column Row Layer    Maximum-Head-Change  Column Row Layer    Maximum-Flux-Residual          L2-NORM 
          0                 1           2             4    7     1       0.8675257724E-02       4    7    1         0.4574168629E+00      0.1189038039E+01
          0                 2           2             4    7     1      -0.8481149700E-03       4    7    1        -0.4596977354E-01      0.1188305060E+00
          0                 3           2             4    7     1      -0.2308098261E-01       5    8    1        -0.1240006311E+01      0.3049836445E+01
          0                 4           2             4    7     1       0.2408710854E-01       5    8    1         0.1329129106E+01      0.3255673300E+01
          0                 5           2             4    7     1      -0.9626983308E-03       4    8    1        -0.5460951558E-01      0.1337536447E+00
          0                 6           1             4    7     1       0.1579083668E-04       4    8    1         0.9206775933E-03      0.2254891866E-02

    ------------------------------------------------
       NWT REQUIRED            6 OUTER ITERATIONS 
       AND A TOTAL OF         11 INNER ITERATIONS.
    ------------------------------------------------

 NO OUTPUT CONTROL FOR STRESS PERIOD    6   TIME STEP   26
 
 SOLVING FOR HEAD 
                                                   Max.-Head-Change                         Max.-Flux-Residual
  Residual-Control   Outer-Iter.   Inner-Iter.     Column Row Layer    Maximum-Head-Change  Column Row Layer    Maximum-Flux-Residual          L2-NORM 
          0                 1           2             4    7     1       0.8548611882E-02       4    7    1         0.4507681277E+00      0.1170576845E+01
          0                 2           2             4    7     1      -0.8357957659E-03       4    7    1        -0.4530489895E-01      0.1170018994E+00
          0                 3           2             4    7     1      -0.2308248701E-01       5    8    1        -0.1240082548E+01      0.3050026517E+01
          0                 4           2             4    7     1       0.2408783558E-01       5    8    1         0.1329169133E+01      0.3255771754E+01
          0                 5           2             4    7     1      -0.9627272670E-03       4    8    1        -0.5461115978E-01      0.1337576807E+00
          0                 6           1             4    7     1       0.1579119334E-04       4    8    1         0.9206984259E-03      0.2254944404E-02

    ------------------------------------------------
       NWT REQUIRED            6 OUTER ITERATIONS 
       AND A TOTAL OF         11 INNER ITERATIONS.
    ------------------------------------------------

 NO OUTPUT CONTROL FOR STRESS PERIOD    6   TIME STEP   27
 
 SOLVING FOR HEAD 
                                                   Max.-Head-Change                         Max.-Flux-Residual
  Residual-Control   Outer-Iter.   Inner-Iter.     Column Row Layer    Maximum-Head-Change  Column Row Layer    Maximum-Flux-Residual          L2-NORM 
          0                 1           2             4    7     1       0.8423335870E-02       4    7    1         0.4441868467E+00      0.1152971628E+01
          0                 2           2             4    7     1      -0.8236098075E-03       4    7    1        -0.4464676969E-01      0.1152570887E+00
          0                 3           2             4    7     1      -0.2308396876E-01       5    8    1        -0.1240156427E+01      0.3050212224E+01
          0                 4           2             4    7     1       0.2408854813E-01       5    8    1         0.1329208280E+01      0.3255868140E+01
          0                 5           2             4    7     1      -0.9627556266E-03       4    8    1        -0.5461276942E-01      0.1337616206E+00
          0                 6           1             4    7     1       0.1579154260E-04       4    8    1         0.9207188505E-03      0.2254992661E-02

    ------------------------------------------------
       NWT REQUIRED            6 OUTER ITERATIONS 
       AND A TOTAL OF         11 INNER ITERATIONS.
    ------------------------------------------------

 NO OUTPUT CONTROL FOR STRESS PERIOD    6   TIME STEP   28
 
 SOLVING FOR HEAD 
                                                   Max.-Head-Change                         Max.-Flux-Residual
  Residual-Control   Outer-Iter.   Inner-Iter.     Column Row Layer    Maximum-Head-Change  Column Row Layer    Maximum-Flux-Residual          L2-NORM 
          0                 1           2             4    7     1       0.8299212384E-02       4    7    1         0.4376617880E+00      0.1136134839E+01
          0                 2           2             4    7     1      -0.8115359572E-03       4    7    1        -0.4399426257E-01      0.1135867805E+00
          0                 3           2             4    7     1      -0.2308542713E-01       5    8    1        -0.1240228027E+01      0.3050393158E+01
          0                 4           2             4    7     1       0.2408924396E-01       5    8    1         0.1329246433E+01      0.3255959679E+01
          0                 5           2             4    7     1      -0.9611648558E-03       5    8    1        -0.5451651553E-01      0.1335370103E+00
          0                 6           1             4    7     1       0.1419720746E-04       4    8    1         0.8276293877E-03      0.2027250375E-02

    ------------------------------------------------
       NWT REQUIRED            6 OUTER ITERATIONS 
       AND A TOTAL OF         11 INNER ITERATIONS.
    ------------------------------------------------

 NO OUTPUT CONTROL FOR STRESS PERIOD    6   TIME STEP   29
 
 SOLVING FOR HEAD 
                                                   Max.-Head-Change                         Max.-Flux-Residual
  Residual-Control   Outer-Iter.   Inner-Iter.     Column Row Layer    Maximum-Head-Change  Column Row Layer    Maximum-Flux-Residual          L2-NORM 
          0                 1           2             4    7     1       0.8176828371E-02       4    7    1         0.4312260801E+00      0.1045236715E+01
          0                 2           2             4    7     1      -0.7996313103E-03       4    7    1        -0.4335069053E-01      0.1048359549E+00
          0                 3           2             4    7     1      -0.2308688701E-01       5    8    1        -0.1240298974E+01      0.3050549385E+01
          0                 4           2             4    7     1       0.2408995289E-01       5    8    1         0.1329285255E+01      0.3256055320E+01
          0                 5           2             4    7     1      -0.9628115352E-03       5    8    1        -0.5460989496E-01      0.1337658819E+00
          0                 6           1             4    7     1       0.1579223061E-04       4    8    1         0.9206050186E-03      0.2254997221E-02

    ------------------------------------------------
       NWT REQUIRED            6 OUTER ITERATIONS 
       AND A TOTAL OF         11 INNER ITERATIONS.
    ------------------------------------------------

 NO OUTPUT CONTROL FOR STRESS PERIOD    6   TIME STEP   30



 STREAM LISTING     PERIOD      6   STEP       30

 LAYER ROW COL. STREAM  RCH.  FLOW INTO     FLOW TO   FLOW OUT OF   OVRLND.     DIRECT     STREAM       STREAM     STREAM     STREAM   STREAMBED  STREAMBED
                SEG.NO.  NO.  STRM. RCH.    AQUIFER    STRM. RCH.    RUNOFF     PRECIP       ET          HEAD       DEPTH      WIDTH   CONDCTNC.   GRADIENT

   1    1    1     1     1    6.9266E+01  4.0352E-01   6.8863E+01  0.000E+00  0.000E+00  0.000E+00  1.09468E+03  1.634E+00  1.935E+01  8.707E-02  1.545E+00
   1    2    2     1     2    6.8863E+01  6.2503E-01   6.8238E+01  0.000E+00  0.000E+00  0.000E+00  1.08969E+03  1.628E+00  1.929E+01  1.350E-01  1.543E+00
   1    3    3     1     3    6.8238E+01  5.3316E-01   6.7704E+01  0.000E+00  0.000E+00  0.000E+00  1.08404E+03  1.622E+00  1.923E+01  1.154E-01  1.541E+00
   1    3    4     1     4    6.7704E+01  4.9106E-01   6.7213E+01  0.000E+00  0.000E+00  0.000E+00  1.07902E+03  1.616E+00  1.917E+01  1.064E-01  1.539E+00
   1    4    5     2     1    6.5213E+01  4.0112E-01   6.4812E+01  0.000E+00  0.000E+00  0.000E+00  1.07408E+03  2.143E+00  1.200E+01  7.800E-02  1.714E+00
   1    5    6     2     2    6.4812E+01  3.0814E-01   6.4504E+01  0.000E+00  0.000E+00  0.000E+00  1.06865E+03  2.136E+00  1.200E+01  6.000E-02  1.712E+00
   1    6    6     2     3    6.4504E+01  3.0777E-01   6.4196E+01  0.000E+00  0.000E+00  0.000E+00  1.06392E+03  2.129E+00  1.200E+01  6.000E-02  1.710E+00
   1    7    6     2     4    6.4196E+01  3.0740E-01   6.3889E+01  0.000E+00  0.000E+00  0.000E+00  1.05920E+03  2.123E+00  1.200E+01  6.000E-02  1.708E+00
   1    8    6     2     5    6.3889E+01  3.0704E-01   6.3582E+01  0.000E+00  0.000E+00  0.000E+00  1.05448E+03  2.117E+00  1.200E+01  6.000E-02  1.706E+00
   1    3    5     3     1    2.0000E+00  2.8252E-01   1.7175E+00  0.000E+00  0.000E+00  0.000E+00  1.07555E+03  1.909E+00  9.636E+00  7.227E-02  1.955E+00
   1    3    6     3     2    1.7175E+00  2.4905E-01   1.4684E+00  0.000E+00  0.000E+00  0.000E+00  1.07264E+03  1.727E+00  8.909E+00  6.682E-02  1.864E+00
   1    3    7     3     3    1.4684E+00  1.9718E-01   1.2712E+00  0.000E+00  0.000E+00  0.000E+00  1.06987E+03  1.555E+00  8.218E+00  5.547E-02  1.777E+00
   1    4    8     3     4    1.2712E+00  2.2567E-01   1.0456E+00  0.000E+00  0.000E+00  0.000E+00  1.06682E+03  1.364E+00  7.455E+00  6.709E-02  1.682E+00
   1    5    8     3     5    1.0456E+00  1.5790E-01   8.8768E-01  0.000E+00  0.000E+00  0.000E+00  1.06362E+03  1.164E+00  6.655E+00  4.991E-02  1.582E+00
   1    6    8     3     6    8.8768E-01  5.5980E-02   8.3170E-01  0.000E+00  0.000E+00  0.000E+00  1.06158E+03  1.036E+00  6.145E+00  1.844E-02  1.518E+00
   1    5   10     4     1    1.0000E+01  9.0919E-02   9.9091E+00  0.000E+00  0.000E+00  0.000E+00  1.07836E+03  6.368E-01  1.000E+01  2.500E-02  1.212E+00
   1    5    9     4     2    9.9091E+00  1.8158E-01   9.7275E+00  0.000E+00  0.000E+00  0.000E+00  1.07154E+03  6.315E-01  1.000E+01  5.000E-02  1.211E+00
   1    6    8     4     3    9.7275E+00  1.2689E-01   9.6006E+00  0.000E+00  0.000E+00  0.000E+00  1.06381E+03  6.256E-01  1.000E+01  3.500E-02  1.209E+00
   1    6    8     5     1    1.0432E+01  2.2686E-01   1.0205E+01  0.000E+00  0.000E+00  0.000E+00  1.05868E+03  6.790E-01  1.542E+01  6.166E-02  1.226E+00
   1    7    7     5     2    1.0205E+01  2.7894E-01   9.9265E+00  0.000E+00  0.000E+00  0.000E+00  1.05417E+03  6.732E-01  1.519E+01  7.594E-02  1.224E+00
   1    8    7     5     3    9.9265E+00  1.9221E-01   9.7343E+00  0.000E+00  0.000E+00  0.000E+00  1.04992E+03  6.676E-01  1.497E+01  5.241E-02  1.223E+00
   1    8    6     5     4    9.7343E+00  1.3577E-01   9.5985E+00  0.000E+00  0.000E+00  0.000E+00  1.04691E+03  6.637E-01  1.482E+01  3.706E-02  1.221E+00
   1    9    6     6     1    6.5723E+01  3.1066E-01   6.5412E+01  0.000E+00  0.000E+00  0.000E+00  1.04490E+03  2.178E+00  1.200E+01  6.000E-02  1.726E+00
   1   10    7     6     2    6.5412E+01  3.1029E-01   6.5102E+01  0.000E+00  0.000E+00  0.000E+00  1.04035E+03  2.171E+00  1.200E+01  6.000E-02  1.724E+00
   1   11    7     6     3    6.5102E+01  3.0991E-01   6.4792E+01  0.000E+00  0.000E+00  0.000E+00  1.03580E+03  2.165E+00  1.200E+01  6.000E-02  1.722E+00
   1   12    7     6     4    6.4792E+01  3.0954E-01   6.4483E+01  0.000E+00  0.000E+00  0.000E+00  1.03125E+03  2.159E+00  1.200E+01  6.000E-02  1.720E+00
   1   13    7     6     5    6.4483E+01  2.1830E-02   6.4461E+01  0.000E+00  0.000E+00  0.000E+00  1.02806E+03  2.156E+00  1.200E+01  2.400E-02  3.032E-01
   1   14    9     7     1    1.5000E+02  1.3359E+00   1.4866E+02  0.000E+00  0.000E+00  0.000E+00  1.03987E+03  2.288E+00  5.529E+01  5.593E-01  7.962E-01
   1   13    8     7     2    1.4866E+02  1.8213E+00   1.4684E+02  0.000E+00  0.000E+00  0.000E+00  1.03478E+03  2.279E+00  5.526E+01  6.148E-01  9.875E-01
   1   13    7     7     3    1.4684E+02  1.4156E+00   1.4543E+02  0.000E+00  0.000E+00  0.000E+00  1.02969E+03  2.271E+00  5.522E+01  5.585E-01  8.449E-01
   1   13    6     8     1    2.0989E+02  1.0199E+00   2.0887E+02  0.000E+00  0.000E+00  0.000E+00  1.02507E+03  3.192E+00  4.629E+01  4.717E-01  7.208E-01
   1   13    5     8     2    2.0887E+02  2.0851E-01   2.0866E+02  0.000E+00  0.000E+00  0.000E+00  1.01881E+03  3.189E+00  4.623E+01  4.711E-01  1.475E-01
   1   13    4     8     3    2.0866E+02 -2.3776E+00   2.1104E+02  0.000E+00  0.000E+00  0.000E+00  1.01257E+03  3.195E+00  4.632E+01  4.721E+00 -1.679E-01
   1   13    3     8     4    2.1104E+02 -3.5455E+00   2.1458E+02  0.000E+00  0.000E+00  0.000E+00  1.00634E+03  3.212E+00  4.657E+01  4.745E+00 -2.490E-01
   1   13    2     8     5    2.1458E+02 -2.5521E+00   2.1713E+02  0.000E+00  0.000E+00  0.000E+00  1.00010E+03  3.229E+00  4.682E+01  4.771E+00 -1.783E-01
   1   13    1     8     6    2.1713E+02 -1.9211E+00   2.1906E+02  0.000E+00  0.000E+00  0.000E+00  9.95116E+02  3.241E+00  4.700E+01  2.874E+00 -2.228E-01
   1    8    6     9     1    7.4575E+00  0.0000E+00   7.4575E+00  0.000E+00  0.000E+00  0.000E+00  1.08065E+03  1.900E+00  4.000E+00  0.000E+00  1.633E+00
   1    8    5     9     2    7.4575E+00  0.0000E+00   7.4575E+00  0.000E+00  0.000E+00  0.000E+00  1.08015E+03  1.900E+00  4.000E+00  0.000E+00  1.633E+00





UNSATURATED ZONE PACKAGE VOLUMETRIC BUDGET FOR  TIME STEP    30 STRESS PERIOD    6
  ------------------------------------------------------------------------------



     CUMULATIVE VOLUMES      L**3       RATES FOR THIS TIME STEP      L**3/T
     ------------------                 ------------------------

           IN:                                      IN:
           ---                                      ---
        INFILTRATION =    78565128.4156          INFILTRATION =           8.3051

          OUT:                                     OUT:
          ----                                     ----
              UZF ET =    40486455.2494                UZF ET =           8.3175
        UZF RECHARGE =       73224.0000          UZF RECHARGE =       0.0000E+00

            IN - OUT =    38005449.1663              IN - OUT =      -1.2395E-02

          STORAGE:                                 STORAGE:
          --------                                 --------
      STORAGE CHANGE =    38020984.8607        STORAGE CHANGE =      -1.2395E-02

 PERCENT DISCREPANCY IS DIFFERENCE BETWEEN IN-OUT MINUS CHANGE IN STORAGE
 DIVIDED BY THE AVERAGE OF IN AND OUT TIMES 100

 PERCENT DISCREPANCY =          -0.00     PERCENT DISCREPANCY =           0.00






1
  VOLUMETRIC BUDGET FOR AGRICULTURAL FIELDS AT  END OF TIME STEP   30, STRESS PERIOD   6
  ------------------------------------------------------------------------------

     CUMULATIVE VOLUMES      L**3       RATES FOR THIS TIME STEP      L**3/T
     ------------------                 ------------------------

           IN:                                      IN:
           ---                                      ---
           AG WELLS      =    39642660.0000             AG WELLS      =           0.0000
      DIVERSION SEGMENTS =    27707634.0000        DIVERSION SEGMENTS =           7.4575
           GW IRRIGATION =           0.0000             GW IRRIGATION =           0.0000
           SW IRRIGATION =           0.0000             SW IRRIGATION =           0.0000
        SYSTEM LOSSES GW =           0.0000          SYSTEM LOSSES GW =           0.0000
        SYSTEM LOSSES SW =           0.0000          SYSTEM LOSSES SW =           0.0000

                TOTAL IN =    67350296.0000                  TOTAL IN =           7.4575

          OUT:                                     OUT:
          ----                                     ----
           AG WELLS      =           0.0000             AG WELLS      =           0.0000
      DIVERSION SEGMENTS =           0.0000        DIVERSION SEGMENTS =           0.0000
           GW IRRIGATION =    39642660.0000             GW IRRIGATION =           0.0000
           SW IRRIGATION =    27708192.0000             SW IRRIGATION =           7.4576
        SYSTEM LOSSES GW =           0.0000          SYSTEM LOSSES GW =           0.0000
        SYSTEM LOSSES SW =           0.0000          SYSTEM LOSSES SW =           0.0000

               TOTAL OUT =    67350848.0000                 TOTAL OUT =           7.4576

                IN - OUT =        -552.0000                  IN - OUT =      -1.4877E-04

     PERCENT DISCREPANCY =          -0.00         PERCENT DISCREPANCY =          -0.00



1
  VOLUMETRIC BUDGET FOR ENTIRE MODEL AT END OF TIME STEP   30, STRESS PERIOD   6
  ------------------------------------------------------------------------------

     CUMULATIVE VOLUMES      L**3       RATES FOR THIS TIME STEP      L**3/T
     ------------------                 ------------------------

           IN:                                      IN:
           ---                                      ---
             STORAGE     =    66330944.0000               STORAGE     =           1.6044
       CONSTANT HEAD     =           0.0000         CONSTANT HEAD     =           0.0000
     HEAD DEP BOUNDS     =     3781788.7500       HEAD DEP BOUNDS     =           0.2858
      STREAM LEAKAGE     =   161063088.0000        STREAM LEAKAGE     =          13.1491
        UZF RECHARGE     =       73223.9531          UZF RECHARGE     =           0.0000
               GW ET     =           0.0000                 GW ET     =           0.0000
     SURFACE LEAKAGE     =           0.0000       SURFACE LEAKAGE     =           0.0000
           AG WELLS      =           0.0000             AG WELLS      =           0.0000

                TOTAL IN =   231249040.0000                  TOTAL IN =          15.0393

          OUT:                                     OUT:
          ----                                     ----
             STORAGE     =    49012912.0000               STORAGE     =           3.9558
       CONSTANT HEAD     =           0.0000         CONSTANT HEAD     =           0.0000
     HEAD DEP BOUNDS     =     3858687.7500       HEAD DEP BOUNDS     =           0.2958
      STREAM LEAKAGE     =   137968336.0000        STREAM LEAKAGE     =          10.3962
        UZF RECHARGE     =           0.0000          UZF RECHARGE     =           0.0000
               GW ET     =      770099.4375                 GW ET     =           0.3914
     SURFACE LEAKAGE     =           0.0000       SURFACE LEAKAGE     =           0.0000
           AG WELLS      =    39642660.0000             AG WELLS      =           0.0000

               TOTAL OUT =   231252688.0000                 TOTAL OUT =          15.0392

                IN - OUT =       -3648.0000                  IN - OUT =       8.5831E-05

     PERCENT DISCREPANCY =          -0.00         PERCENT DISCREPANCY =           0.00






         TIME SUMMARY AT END OF TIME STEP   30 IN STRESS PERIOD    6
                    SECONDS     MINUTES      HOURS       DAYS        YEARS
                    -----------------------------------------------------------
   TIME STEP LENGTH  87667.      1461.1      24.352      1.0147     2.77799E-03
 STRESS PERIOD TIME 2.63000E+06  43833.      730.56      30.440     8.33397E-02
         TOTAL TIME 1.32364E+07 2.20607E+05  3676.8      153.20     0.41944    
1
1
                            STRESS PERIOD NO.    7, LENGTH =   2630000.    
                            -----------------------------------------------

                              NUMBER OF TIME STEPS =    30

                               MULTIPLIER FOR DELT =     1.000

                            INITIAL TIME STEP SIZE =   87666.66    

 REUSING NON-PARAMETER GHB CELLS FROM LAST STRESS PERIOD

      2 GHB CELLS

 REUSING STREAM SEGMENT DATA FROM LAST STRESS PERIOD



            AREAL INFILTRATION RATE
 READING ON UNIT   19 WITH FORMAT: (FREE)              

            1           2           3           4           5           6           7           8           9          10
 ........................................................................................................................
   1   1.0000E-10  2.0000E-10   0.000       0.000       0.000       0.000       0.000       0.000       0.000       0.000    
   2   2.0000E-10  1.0000E-10  2.0000E-10   0.000       0.000      8.0000E-10  8.0000E-10  5.0000E-10   0.000       0.000    
   3    0.000      5.0000E-10  1.0000E-10  1.0000E-10  8.0000E-10  8.0000E-10  5.0000E-10  5.0000E-10   0.000       0.000    
   4   8.0000E-10  5.0000E-10  1.0000E-10  1.0000E-10  1.0000E-10  1.0000E-10  1.0000E-10  1.0000E-10  2.0000E-10   0.000    
   5   8.0000E-10  5.0000E-10  1.0000E-10  1.0000E-10  1.0000E-10  1.0000E-10  1.0000E-10  1.0000E-10  1.0000E-10  1.0000E-10
   6   8.0000E-10  5.0000E-10  5.0000E-10  2.0000E-10  2.0000E-10  1.0000E-10  1.0000E-10  1.0000E-10  1.0000E-10  5.0000E-10
   7   8.0000E-10  5.0000E-10  5.0000E-10  2.0000E-10  2.0000E-10  1.0000E-10  1.0000E-10  2.0000E-10  2.0000E-10   0.000    
   8    0.000      5.0000E-10  5.0000E-10  2.0000E-10  2.0000E-10  1.0000E-10  1.0000E-10  2.0000E-10  5.0000E-10   0.000    
   9    0.000      5.0000E-10  5.0000E-10  2.0000E-10  2.0000E-10  1.0000E-10  1.0000E-10  2.0000E-10  5.0000E-10   0.000    
  10    0.000      5.0000E-10  5.0000E-10  2.0000E-10  2.0000E-10  1.0000E-10  1.0000E-10  2.0000E-10  5.0000E-10  8.0000E-10
  11    0.000      1.0000E-10  1.0000E-10  1.0000E-10  1.0000E-10  1.0000E-10  1.0000E-10  2.0000E-10  5.0000E-10   0.000    
  12   1.0000E-10  1.0000E-10  1.0000E-10  1.0000E-10  1.0000E-10  1.0000E-10  1.0000E-10  1.0000E-10  2.0000E-10   0.000    
  13   1.0000E-10  1.0000E-10  2.0000E-10  2.0000E-10  2.0000E-10  2.0000E-10  2.0000E-10  1.0000E-10  1.0000E-10   0.000    
  14    0.000      2.0000E-10  5.0000E-10  5.0000E-10  5.0000E-10  5.0000E-10  5.0000E-10  2.0000E-10  1.0000E-10   0.000    
  15    0.000       0.000      8.0000E-10  8.0000E-10  8.0000E-10  8.0000E-10   0.000       0.000       0.000       0.000    

                  ET RATE =  1.500000E-07

 USING ET EXTINCTION DEPTH FROM PREVIOUS STRESS PERIOD. CURRENT PERIOD IS:       7

 USING EXTINCTION WATER CONTENT FROM PREVIOUS STRESS PERIOD. CURRENT PERIOD IS:       7

 USING AIR ENTRY PRESSURE FROM PREVIOUS STRESS PERIOD. CURRENT PERIOD IS:       7

 USING ROOT PRESSURE HEAD FROM PREVIOUS STRESS PERIOD. CURRENT PERIOD IS:       7

 USING ROOT ACTIVITY FROM PREVIOUS STRESS PERIOD. CURRENT PERIOD IS:       7

 PROCESSING AG STRESS PERIOD DATA

 READING AG STRESS PERIOD DATA

 READING IRRIGATION SEGMENT

 READING IRRIGATION WELL

 READING SUPPLEMENTAL WELL

 END PROCESSING AG STRESS PERIOD DATA OPTIONS
 
 SOLVING FOR HEAD 
                                                   Max.-Head-Change                         Max.-Flux-Residual
  Residual-Control   Outer-Iter.   Inner-Iter.     Column Row Layer    Maximum-Head-Change  Column Row Layer    Maximum-Flux-Residual          L2-NORM 
          0                 1           2             4   13     1      -0.1419558763E-01       4   13    1        -0.9133735213E+00      0.1690089935E+01
          0                 2           2             4    7     1      -0.7384275836E-01       4    7    1        -0.3964074359E+01      0.9715093672E+01
          0                 3           2             4    7     1       0.7610066062E-01       4    7    1         0.4199067938E+01      0.1028429635E+02
          0                 4           2             4    7     1      -0.3028152833E-02       4    7    1        -0.1717396190E+00      0.4206631603E+00
          0                 5           1             4    7     1       0.3733837793E-04       5    7    1         0.2176266732E-02      0.5335630163E-02

    ------------------------------------------------
       NWT REQUIRED            5 OUTER ITERATIONS 
       AND A TOTAL OF          9 INNER ITERATIONS.
    ------------------------------------------------

 NO OUTPUT CONTROL FOR STRESS PERIOD    7   TIME STEP    1
 
 SOLVING FOR HEAD 
                                                   Max.-Head-Change                         Max.-Flux-Residual
  Residual-Control   Outer-Iter.   Inner-Iter.     Column Row Layer    Maximum-Head-Change  Column Row Layer    Maximum-Flux-Residual          L2-NORM 
          0                 1           2             4    7     1       0.7936453222E-02       4    7    1         0.4185805445E+00      0.1030438223E+01
          0                 2           2             7   13     1      -0.3995322542E-02       7   13    1        -0.2216308955E+00      0.2437749005E+00
          0                 3           2             7   13     1       0.2719898112E-03       7   13    1         0.1550987799E-01      0.1706386198E-01
          0                 4           1             7   13     1      -0.1081662166E-04       7   13    1        -0.6340036616E-03      0.6977824475E-03

    ------------------------------------------------
       NWT REQUIRED            4 OUTER ITERATIONS 
       AND A TOTAL OF          7 INNER ITERATIONS.
    ------------------------------------------------

 NO OUTPUT CONTROL FOR STRESS PERIOD    7   TIME STEP    2
 
 SOLVING FOR HEAD 
                                                   Max.-Head-Change                         Max.-Flux-Residual
  Residual-Control   Outer-Iter.   Inner-Iter.     Column Row Layer    Maximum-Head-Change  Column Row Layer    Maximum-Flux-Residual          L2-NORM 
          0                 1           2             4    7     1       0.7818543971E-02       4    7    1         0.4123728574E+00      0.9767087993E+00
          0                 2           2             4    7     1      -0.7052713403E-01       4    7    1        -0.3786093239E+01      0.9290376841E+01
          0                 3           2             4    7     1       0.7267188325E-01       4    7    1         0.4009877683E+01      0.9820826720E+01
          0                 4           2             4    7     1      -0.2891715373E-02       4    7    1        -0.1640017438E+00      0.4016949927E+00
          0                 5           1             4    7     1       0.3565604997E-04       5    7    1         0.2078203210E-02      0.5093398082E-02

    ------------------------------------------------
       NWT REQUIRED            5 OUTER ITERATIONS 
       AND A TOTAL OF          9 INNER ITERATIONS.
    ------------------------------------------------

 NO OUTPUT CONTROL FOR STRESS PERIOD    7   TIME STEP    3
 
 SOLVING FOR HEAD 
                                                   Max.-Head-Change                         Max.-Flux-Residual
  Residual-Control   Outer-Iter.   Inner-Iter.     Column Row Layer    Maximum-Head-Change  Column Row Layer    Maximum-Flux-Residual          L2-NORM 
          0                 1           2             4    7     1       0.7702470036E-02       4    7    1         0.4062595475E+00      0.9456909011E+00
          0                 2           2             4    7     1      -0.7492417464E-03       4    7    1        -0.4062604726E-01      0.9455988828E-01
          0                 3           2             4    7     1      -0.6959931808E-01       5    8    1        -0.3736887844E+01      0.9192731243E+01
          0                 4           2             4    7     1       0.7249766446E-01       5    6    1         0.4000271861E+01      0.9798699997E+01
          0                 5           2             4    7     1      -0.2885466880E-02       4    8    1        -0.1636634547E+00      0.4008788898E+00
          0                 6           1             4    7     1       0.3560541907E-04       4    8    1         0.2075679463E-02      0.5084197753E-02

    ------------------------------------------------
       NWT REQUIRED            6 OUTER ITERATIONS 
       AND A TOTAL OF         11 INNER ITERATIONS.
    ------------------------------------------------

 NO OUTPUT CONTROL FOR STRESS PERIOD    7   TIME STEP    4
 
 SOLVING FOR HEAD 
                                                   Max.-Head-Change                         Max.-Flux-Residual
  Residual-Control   Outer-Iter.   Inner-Iter.     Column Row Layer    Maximum-Head-Change  Column Row Layer    Maximum-Flux-Residual          L2-NORM 
          0                 1           2             4    7     1       0.7587694664E-02       4    7    1         0.4002115988E+00      0.9409144024E+00
          0                 2           2             4    7     1      -0.7380772116E-03       4    7    1        -0.4002125099E-01      0.9400658192E-01
          0                 3           2             4    7     1      -0.6960148210E-01       5    8    1        -0.3736995045E+01      0.9193089998E+01
          0                 4           2             4    7     1       0.7249915675E-01       5    6    1         0.4000354260E+01      0.9798932902E+01
          0                 5           2             4    7     1      -0.2885526275E-02       4    8    1        -0.1636668348E+00      0.4008886790E+00
          0                 6           1             4    7     1       0.3560615188E-04       4    8    1         0.2075722319E-02      0.5084307929E-02

    ------------------------------------------------
       NWT REQUIRED            6 OUTER ITERATIONS 
       AND A TOTAL OF         11 INNER ITERATIONS.
    ------------------------------------------------

 OUTPUT CONTROL FOR STRESS PERIOD    7   TIME STEP    5
    PRINT BUDGET
    SAVE BUDGET
 UBDSV1 SAVING "         STORAGE" ON UNIT 102 AT TIME STEP  5, STRESS PERIOD   7
 UBDSV2 SAVING "   CONSTANT HEAD" ON UNIT 102 AT TIME STEP  5, STRESS PERIOD   7
 UBDSV1 SAVING "FLOW RIGHT FACE " ON UNIT 102 AT TIME STEP  5, STRESS PERIOD   7
 UBDSV1 SAVING "FLOW FRONT FACE " ON UNIT 102 AT TIME STEP  5, STRESS PERIOD   7

  HEAD DEP BOUNDS   PERIOD    7   STEP     5
 BOUNDARY      1   LAYER   1   ROW    13   COL     1   RATE   -0.295229    
 BOUNDARY      2   LAYER   1   ROW    14   COL     9   RATE    0.285764    



 STREAM LISTING     PERIOD      7   STEP        5

 LAYER ROW COL. STREAM  RCH.  FLOW INTO     FLOW TO   FLOW OUT OF   OVRLND.     DIRECT     STREAM       STREAM     STREAM     STREAM   STREAMBED  STREAMBED
                SEG.NO.  NO.  STRM. RCH.    AQUIFER    STRM. RCH.    RUNOFF     PRECIP       ET          HEAD       DEPTH      WIDTH   CONDCTNC.   GRADIENT

   1    1    1     1     1    6.2250E+01  3.7978E-01   6.1870E+01  0.000E+00  0.000E+00  0.000E+00  1.09460E+03  1.553E+00  1.854E+01  8.342E-02  1.518E+00
   1    2    2     1     2    6.1870E+01  5.8817E-01   6.1282E+01  0.000E+00  0.000E+00  0.000E+00  1.08961E+03  1.547E+00  1.848E+01  1.294E-01  1.516E+00
   1    3    3     1     3    6.1282E+01  5.0163E-01   6.0781E+01  0.000E+00  0.000E+00  0.000E+00  1.08396E+03  1.540E+00  1.841E+01  1.105E-01  1.513E+00
   1    3    4     1     4    6.0781E+01  4.6194E-01   6.0319E+01  0.000E+00  0.000E+00  0.000E+00  1.07894E+03  1.534E+00  1.836E+01  1.019E-01  1.511E+00
   1    4    5     2     1    5.8319E+01  3.9026E-01   5.7928E+01  0.000E+00  0.000E+00  0.000E+00  1.07394E+03  2.003E+00  1.200E+01  7.800E-02  1.668E+00
   1    5    6     2     2    5.7928E+01  2.9977E-01   5.7629E+01  0.000E+00  0.000E+00  0.000E+00  1.06851E+03  1.996E+00  1.200E+01  6.000E-02  1.665E+00
   1    6    6     2     3    5.7629E+01  2.9940E-01   5.7329E+01  0.000E+00  0.000E+00  0.000E+00  1.06378E+03  1.990E+00  1.200E+01  6.000E-02  1.663E+00
   1    7    6     2     4    5.7329E+01  2.9903E-01   5.7030E+01  0.000E+00  0.000E+00  0.000E+00  1.05906E+03  1.984E+00  1.200E+01  6.000E-02  1.661E+00
   1    8    6     2     5    5.7030E+01  2.9865E-01   5.6732E+01  0.000E+00  0.000E+00  0.000E+00  1.05434E+03  1.978E+00  1.200E+01  6.000E-02  1.659E+00
   1    3    5     3     1    2.0000E+00  2.8252E-01   1.7175E+00  0.000E+00  0.000E+00  0.000E+00  1.07555E+03  1.909E+00  9.636E+00  7.227E-02  1.955E+00
   1    3    6     3     2    1.7175E+00  2.4905E-01   1.4684E+00  0.000E+00  0.000E+00  0.000E+00  1.07264E+03  1.727E+00  8.909E+00  6.682E-02  1.864E+00
   1    3    7     3     3    1.4684E+00  1.9718E-01   1.2712E+00  0.000E+00  0.000E+00  0.000E+00  1.06987E+03  1.555E+00  8.218E+00  5.547E-02  1.777E+00
   1    4    8     3     4    1.2712E+00  2.2567E-01   1.0456E+00  0.000E+00  0.000E+00  0.000E+00  1.06682E+03  1.364E+00  7.455E+00  6.709E-02  1.682E+00
   1    5    8     3     5    1.0456E+00  1.5790E-01   8.8768E-01  0.000E+00  0.000E+00  0.000E+00  1.06362E+03  1.164E+00  6.655E+00  4.991E-02  1.582E+00
   1    6    8     3     6    8.8768E-01  5.5980E-02   8.3170E-01  0.000E+00  0.000E+00  0.000E+00  1.06158E+03  1.036E+00  6.145E+00  1.844E-02  1.518E+00
   1    5   10     4     1    1.0000E+01  9.0919E-02   9.9091E+00  0.000E+00  0.000E+00  0.000E+00  1.07836E+03  6.368E-01  1.000E+01  2.500E-02  1.212E+00
   1    5    9     4     2    9.9091E+00  1.8158E-01   9.7275E+00  0.000E+00  0.000E+00  0.000E+00  1.07154E+03  6.315E-01  1.000E+01  5.000E-02  1.211E+00
   1    6    8     4     3    9.7275E+00  1.2689E-01   9.6006E+00  0.000E+00  0.000E+00  0.000E+00  1.06381E+03  6.256E-01  1.000E+01  3.500E-02  1.209E+00
   1    6    8     5     1    1.0432E+01  2.2686E-01   1.0205E+01  0.000E+00  0.000E+00  0.000E+00  1.05868E+03  6.790E-01  1.542E+01  6.166E-02  1.226E+00
   1    7    7     5     2    1.0205E+01  2.7894E-01   9.9265E+00  0.000E+00  0.000E+00  0.000E+00  1.05417E+03  6.732E-01  1.519E+01  7.594E-02  1.224E+00
   1    8    7     5     3    9.9265E+00  1.9221E-01   9.7343E+00  0.000E+00  0.000E+00  0.000E+00  1.04992E+03  6.676E-01  1.497E+01  5.241E-02  1.223E+00
   1    8    6     5     4    9.7343E+00  1.3577E-01   9.5985E+00  0.000E+00  0.000E+00  0.000E+00  1.04691E+03  6.637E-01  1.482E+01  3.706E-02  1.221E+00
   1    9    6     6     1    4.3898E+01  2.8251E-01   4.3615E+01  0.000E+00  0.000E+00  0.000E+00  1.04444E+03  1.708E+00  1.200E+01  6.000E-02  1.569E+00
   1   10    7     6     2    4.3615E+01  2.8211E-01   4.3333E+01  0.000E+00  0.000E+00  0.000E+00  1.03988E+03  1.702E+00  1.200E+01  6.000E-02  1.567E+00
   1   11    7     6     3    4.3333E+01  2.8171E-01   4.3051E+01  0.000E+00  0.000E+00  0.000E+00  1.03533E+03  1.695E+00  1.200E+01  6.000E-02  1.565E+00
   1   12    7     6     4    4.3051E+01  2.8131E-01   4.2770E+01  0.000E+00  0.000E+00  0.000E+00  1.03078E+03  1.689E+00  1.200E+01  6.000E-02  1.563E+00
   1   13    7     6     5    4.2770E+01  1.0499E-02   4.2760E+01  0.000E+00  0.000E+00  0.000E+00  1.02759E+03  1.685E+00  1.200E+01  2.400E-02  1.458E-01
   1   14    9     7     1    1.5000E+02  1.3359E+00   1.4866E+02  0.000E+00  0.000E+00  0.000E+00  1.03987E+03  2.288E+00  5.529E+01  5.593E-01  7.962E-01
   1   13    8     7     2    1.4866E+02  1.8207E+00   1.4684E+02  0.000E+00  0.000E+00  0.000E+00  1.03478E+03  2.279E+00  5.526E+01  6.148E-01  9.872E-01
   1   13    7     7     3    1.4684E+02  1.4148E+00   1.4543E+02  0.000E+00  0.000E+00  0.000E+00  1.02969E+03  2.271E+00  5.522E+01  5.585E-01  8.444E-01
   1   13    6     8     1    1.8819E+02  9.2235E-01   1.8727E+02  0.000E+00  0.000E+00  0.000E+00  1.02494E+03  3.064E+00  4.443E+01  4.527E-01  6.791E-01
   1   13    5     8     2    1.8727E+02  1.4327E-01   1.8712E+02  0.000E+00  0.000E+00  0.000E+00  1.01869E+03  3.061E+00  4.438E+01  4.523E-01  1.056E-01
   1   13    4     8     3    1.8712E+02 -2.6594E+00   1.8978E+02  0.000E+00  0.000E+00  0.000E+00  1.01244E+03  3.069E+00  4.449E+01  4.534E+00 -1.955E-01
   1   13    3     8     4    1.8978E+02 -3.7720E+00   1.9355E+02  0.000E+00  0.000E+00  0.000E+00  1.00621E+03  3.088E+00  4.478E+01  4.563E+00 -2.756E-01
   1   13    2     8     5    1.9355E+02 -2.8601E+00   1.9641E+02  0.000E+00  0.000E+00  0.000E+00  9.99983E+02  3.108E+00  4.507E+01  4.592E+00 -2.076E-01
   1   13    1     8     6    1.9641E+02 -2.1355E+00   1.9855E+02  0.000E+00  0.000E+00  0.000E+00  9.94998E+02  3.123E+00  4.528E+01  2.769E+00 -2.571E-01
   1    8    6     9     1    2.2432E+01  0.0000E+00   2.2432E+01  0.000E+00  0.000E+00  0.000E+00  1.08243E+03  3.680E+00  4.000E+00  0.000E+00  2.227E+00
   1    8    5     9     2    2.2432E+01  0.0000E+00   2.2432E+01  0.000E+00  0.000E+00  0.000E+00  1.08193E+03  3.680E+00  4.000E+00  0.000E+00  2.227E+00



 UBDSV3 SAVING "           GW ET" ON UNIT  61 AT TIME STEP  5, STRESS PERIOD   7
 UBDSV3 SAVING "    UZF RECHARGE" ON UNIT  61 AT TIME STEP  5, STRESS PERIOD   7
 UBDSV3 SAVING " SURFACE LEAKAGE" ON UNIT  61 AT TIME STEP  5, STRESS PERIOD   7
 UBDSV3 SAVING "       HORT+DUNN" ON UNIT  61 AT TIME STEP  5, STRESS PERIOD   7
 UBDSV3 SAVING "  STORAGE CHANGE" ON UNIT  61 AT TIME STEP  5, STRESS PERIOD   7


UNSATURATED ZONE PACKAGE VOLUMETRIC BUDGET FOR  TIME STEP     5 STRESS PERIOD    7
  ------------------------------------------------------------------------------



     CUMULATIVE VOLUMES      L**3       RATES FOR THIS TIME STEP      L**3/T
     ------------------                 ------------------------

           IN:                                      IN:
           ---                                      ---
        INFILTRATION =    88874971.0023          INFILTRATION =          23.2803

          OUT:                                     OUT:
          ----                                     ----
              UZF ET =    50707292.7288                UZF ET =          23.3175
        UZF RECHARGE =       73224.0000          UZF RECHARGE =       0.0000E+00

            IN - OUT =    38094454.2735              IN - OUT =      -3.7159E-02

          STORAGE:                                 STORAGE:
          --------                                 --------
      STORAGE CHANGE =    38110063.4314        STORAGE CHANGE =      -3.7159E-02

 PERCENT DISCREPANCY IS DIFFERENCE BETWEEN IN-OUT MINUS CHANGE IN STORAGE
 DIVIDED BY THE AVERAGE OF IN AND OUT TIMES 100

 PERCENT DISCREPANCY =          -0.00     PERCENT DISCREPANCY =           0.00






 

        AG WELLS          PERIOD    7   STEP   5
 AG WELL      1   LAYER   1   ROW     6   COL     4   RATE     0.00000    
 AG WELL      2   LAYER   1   ROW     6   COL     5   RATE     0.00000    
 AG WELL      3   LAYER   1   ROW     7   COL     4   RATE     0.00000    
 AG WELL      4   LAYER   1   ROW     7   COL     5   RATE     0.00000    
 AG WELL      5   LAYER   1   ROW     8   COL     4   RATE     0.00000    
 AG WELL      6   LAYER   1   ROW     8   COL     5   RATE     0.00000    
 
 

   DIVERSION SEGMENTS     PERIOD    7   STEP   5
 SEGMENT      9   RATE     22.4324    
 
 

        SW IRRIGATION     PERIOD    7   STEP   5
 SEGMENT      9   ROW     6   COL     4   RATE     3.73881    
 SEGMENT      9   ROW     6   COL     5   RATE     3.73881    
 SEGMENT      9   ROW     7   COL     4   RATE     3.73881    
 SEGMENT      9   ROW     7   COL     5   RATE     3.73881    
 SEGMENT      9   ROW     8   COL     4   RATE     3.73881    
 SEGMENT      9   ROW     8   COL     5   RATE     3.73881    
 
 

        GW IRRIGATION     PERIOD    7   STEP   5
 AG WELL      1   ROW     6   COL     4   RATE     0.00000    
 AG WELL      2   ROW     6   COL     5   RATE     0.00000    
 AG WELL      3   ROW     7   COL     4   RATE     0.00000    
 AG WELL      4   ROW     7   COL     5   RATE     0.00000    
 AG WELL      5   ROW     8   COL     4   RATE     0.00000    
 AG WELL      6   ROW     8   COL     5   RATE     0.00000    
 
1
  VOLUMETRIC BUDGET FOR AGRICULTURAL FIELDS AT  END OF TIME STEP    5, STRESS PERIOD   7
  ------------------------------------------------------------------------------

     CUMULATIVE VOLUMES      L**3       RATES FOR THIS TIME STEP      L**3/T
     ------------------                 ------------------------

           IN:                                      IN:
           ---                                      ---
           AG WELLS      =    39642660.0000             AG WELLS      =           0.0000
      DIVERSION SEGMENTS =    37645788.0000        DIVERSION SEGMENTS =          22.4324
           GW IRRIGATION =           0.0000             GW IRRIGATION =           0.0000
           SW IRRIGATION =           0.0000             SW IRRIGATION =           0.0000
        SYSTEM LOSSES GW =           0.0000          SYSTEM LOSSES GW =           0.0000
        SYSTEM LOSSES SW =           0.0000          SYSTEM LOSSES SW =           0.0000

                TOTAL IN =    77288448.0000                  TOTAL IN =          22.4324

          OUT:                                     OUT:
          ----                                     ----
           AG WELLS      =           0.0000             AG WELLS      =           0.0000
      DIVERSION SEGMENTS =           0.0000        DIVERSION SEGMENTS =           0.0000
           GW IRRIGATION =    39642660.0000             GW IRRIGATION =           0.0000
           SW IRRIGATION =    37646544.0000             SW IRRIGATION =          22.4328
        SYSTEM LOSSES GW =           0.0000          SYSTEM LOSSES GW =           0.0000
        SYSTEM LOSSES SW =           0.0000          SYSTEM LOSSES SW =           0.0000

               TOTAL OUT =    77289200.0000                 TOTAL OUT =          22.4328

                IN - OUT =        -752.0000                  IN - OUT =      -4.4823E-04

     PERCENT DISCREPANCY =          -0.00         PERCENT DISCREPANCY =          -0.00



1
  VOLUMETRIC BUDGET FOR ENTIRE MODEL AT END OF TIME STEP    5, STRESS PERIOD   7
  ------------------------------------------------------------------------------

     CUMULATIVE VOLUMES      L**3       RATES FOR THIS TIME STEP      L**3/T
     ------------------                 ------------------------

           IN:                                      IN:
           ---                                      ---
             STORAGE     =    67708480.0000               STORAGE     =           2.6311
       CONSTANT HEAD     =           0.0000         CONSTANT HEAD     =           0.0000
     HEAD DEP BOUNDS     =     3907048.7500       HEAD DEP BOUNDS     =           0.2858
      STREAM LEAKAGE     =   166623824.0000        STREAM LEAKAGE     =          12.6952
        UZF RECHARGE     =       73223.9531          UZF RECHARGE     =           0.0000
               GW ET     =           0.0000                 GW ET     =           0.0000
     SURFACE LEAKAGE     =           0.0000       SURFACE LEAKAGE     =           0.0000
           AG WELLS      =           0.0000             AG WELLS      =           0.0000

                TOTAL IN =   238312576.0000                  TOTAL IN =          15.6121

          OUT:                                     OUT:
          ----                                     ----
             STORAGE     =    50542720.0000               STORAGE     =           3.3670
       CONSTANT HEAD     =           0.0000         CONSTANT HEAD     =           0.0000
     HEAD DEP BOUNDS     =     3988183.0000       HEAD DEP BOUNDS     =           0.2952
      STREAM LEAKAGE     =   143058848.0000        STREAM LEAKAGE     =          11.4271
        UZF RECHARGE     =           0.0000          UZF RECHARGE     =           0.0000
               GW ET     =     1083719.8750                 GW ET     =           0.5226
     SURFACE LEAKAGE     =           0.0000       SURFACE LEAKAGE     =           0.0000
           AG WELLS      =    39642660.0000             AG WELLS      =           0.0000

               TOTAL OUT =   238316128.0000                 TOTAL OUT =          15.6119

                IN - OUT =       -3552.0000                  IN - OUT =       1.8692E-04

     PERCENT DISCREPANCY =          -0.00         PERCENT DISCREPANCY =           0.00






         TIME SUMMARY AT END OF TIME STEP    5 IN STRESS PERIOD    7
                    SECONDS     MINUTES      HOURS       DAYS        YEARS
                    -----------------------------------------------------------
   TIME STEP LENGTH  87667.      1461.1      24.352      1.0147     2.77799E-03
 STRESS PERIOD TIME 4.38333E+05  7305.6      121.76      5.0733     1.38899E-02
         TOTAL TIME 1.36747E+07 2.27912E+05  3798.5      158.27     0.43333    
1
 
 SOLVING FOR HEAD 
                                                   Max.-Head-Change                         Max.-Flux-Residual
  Residual-Control   Outer-Iter.   Inner-Iter.     Column Row Layer    Maximum-Head-Change  Column Row Layer    Maximum-Flux-Residual          L2-NORM 
          0                 1           2             4    7     1       0.7474524615E-02       4    7    1         0.3942457877E+00      0.9506211183E+00
          0                 2           2             4    7     1      -0.7270688303E-03       4    7    1        -0.3942466845E-01      0.9485775050E-01
          0                 3           2             4    7     1      -0.6960359975E-01       5    8    1        -0.3737099307E+01      0.9193431228E+01
          0                 4           2             4    7     1       0.7250061140E-01       5    6    1         0.4000434542E+01      0.9799130475E+01
          0                 5           2             4    7     1      -0.2885584172E-02       4    8    1        -0.1636701291E+00      0.4008967573E+00
          0                 6           1             4    7     1       0.3560686654E-04       4    8    1         0.2075764104E-02      0.5084409312E-02

    ------------------------------------------------
       NWT REQUIRED            6 OUTER ITERATIONS 
       AND A TOTAL OF         11 INNER ITERATIONS.
    ------------------------------------------------

 NO OUTPUT CONTROL FOR STRESS PERIOD    7   TIME STEP    6
 
 SOLVING FOR HEAD 
                                                   Max.-Head-Change                         Max.-Flux-Residual
  Residual-Control   Outer-Iter.   Inner-Iter.     Column Row Layer    Maximum-Head-Change  Column Row Layer    Maximum-Flux-Residual          L2-NORM 
          0                 1           2             4    7     1       0.7363240725E-02       4    7    1         0.3883780145E+00      0.9671270209E+00
          0                 2           2             4    7     1      -0.7162439209E-03       4    7    1        -0.3883788968E-01      0.9636626622E-01
          0                 3           2             4    7     1      -0.6960568693E-01       5    8    1        -0.3737201627E+01      0.9193758772E+01
          0                 4           2             4    7     1       0.7250204682E-01       5    6    1         0.4000513733E+01      0.9799325360E+01
          0                 5           2             4    7     1      -0.2885641304E-02       4    8    1        -0.1636733793E+00      0.4009047370E+00
          0                 6           1             4    7     1       0.3560757157E-04       4    8    1         0.2075805316E-02      0.5084514146E-02

    ------------------------------------------------
       NWT REQUIRED            6 OUTER ITERATIONS 
       AND A TOTAL OF         11 INNER ITERATIONS.
    ------------------------------------------------

 NO OUTPUT CONTROL FOR STRESS PERIOD    7   TIME STEP    7
 
 SOLVING FOR HEAD 
                                                   Max.-Head-Change                         Max.-Flux-Residual
  Residual-Control   Outer-Iter.   Inner-Iter.     Column Row Layer    Maximum-Head-Change  Column Row Layer    Maximum-Flux-Residual          L2-NORM 
          0                 1           2             4    7     1       0.7253573686E-02       4    7    1         0.3825932332E+00      0.9858696371E+00
          0                 2           2             4    7     1      -0.7055762869E-03       4    7    1        -0.3825941010E-01      0.9809945544E-01
          0                 3           2             4    7     1      -0.6960772322E-01       5    8    1        -0.3737300748E+01      0.9194071459E+01
          0                 4           2             4    7     1       0.7250343999E-01       5    6    1         0.4000590552E+01      0.9799514446E+01
          0                 5           2             4    7     1      -0.2885696754E-02       4    8    1        -0.1636765331E+00      0.4009124698E+00
          0                 6           1             4    7     1       0.3560825599E-04       4    8    1         0.2075845304E-02      0.5084614067E-02

    ------------------------------------------------
       NWT REQUIRED            6 OUTER ITERATIONS 
       AND A TOTAL OF         11 INNER ITERATIONS.
    ------------------------------------------------

 NO OUTPUT CONTROL FOR STRESS PERIOD    7   TIME STEP    8
 
 SOLVING FOR HEAD 
                                                   Max.-Head-Change                         Max.-Flux-Residual
  Residual-Control   Outer-Iter.   Inner-Iter.     Column Row Layer    Maximum-Head-Change  Column Row Layer    Maximum-Flux-Residual          L2-NORM 
          0                 1           2             4    7     1       0.7145525911E-02       4    7    1         0.3768922838E+00      0.1004337449E+01
          0                 2           2             4    7     1      -0.6950661632E-03       4    7    1        -0.3768931371E-01      0.9981318962E-01
          0                 3           2             4    7     1      -0.6960972639E-01       5    8    1        -0.3737397784E+01      0.9194372503E+01
          0                 4           2             4    7     1       0.7250480939E-01       5    6    1         0.4000666030E+01      0.9799700227E+01
          0                 5           2             4    7     1      -0.2885751258E-02       4    8    1        -0.1636796326E+00      0.4009200590E+00
          0                 6           1             4    7     1       0.3560892831E-04       4    8    1         0.2075884611E-02      0.5084701587E-02

    ------------------------------------------------
       NWT REQUIRED            6 OUTER ITERATIONS 
       AND A TOTAL OF         11 INNER ITERATIONS.
    ------------------------------------------------

 NO OUTPUT CONTROL FOR STRESS PERIOD    7   TIME STEP    9
 
 SOLVING FOR HEAD 
                                                   Max.-Head-Change                         Max.-Flux-Residual
  Residual-Control   Outer-Iter.   Inner-Iter.     Column Row Layer    Maximum-Head-Change  Column Row Layer    Maximum-Flux-Residual          L2-NORM 
          0                 1           2             4    7     1       0.7039098886E-02       4    7    1         0.3712752915E+00      0.1021295480E+01
          0                 2           2             4    7     1      -0.6847136942E-03       4    7    1        -0.3712761304E-01      0.1013880038E+00
          0                 3           2             4    7     1      -0.6961168753E-01       5    8    1        -0.3737492298E+01      0.9194661692E+01
          0                 4           2             4    7     1       0.7250614580E-01       5    6    1         0.4000739653E+01      0.9799881485E+01
          0                 5           2             4    7     1      -0.2885804448E-02       4    8    1        -0.1636826570E+00      0.4009274793E+00
          0                 6           1             4    7     1       0.3560958427E-04       4    8    1         0.2075922989E-02      0.5084802440E-02

    ------------------------------------------------
       NWT REQUIRED            6 OUTER ITERATIONS 
       AND A TOTAL OF         11 INNER ITERATIONS.
    ------------------------------------------------

 OUTPUT CONTROL FOR STRESS PERIOD    7   TIME STEP   10
    PRINT BUDGET
    SAVE BUDGET
 UBDSV1 SAVING "         STORAGE" ON UNIT 102 AT TIME STEP 10, STRESS PERIOD   7
 UBDSV2 SAVING "   CONSTANT HEAD" ON UNIT 102 AT TIME STEP 10, STRESS PERIOD   7
 UBDSV1 SAVING "FLOW RIGHT FACE " ON UNIT 102 AT TIME STEP 10, STRESS PERIOD   7
 UBDSV1 SAVING "FLOW FRONT FACE " ON UNIT 102 AT TIME STEP 10, STRESS PERIOD   7

  HEAD DEP BOUNDS   PERIOD    7   STEP    10
 BOUNDARY      1   LAYER   1   ROW    13   COL     1   RATE   -0.294733    
 BOUNDARY      2   LAYER   1   ROW    14   COL     9   RATE    0.285764    



 STREAM LISTING     PERIOD      7   STEP       10

 LAYER ROW COL. STREAM  RCH.  FLOW INTO     FLOW TO   FLOW OUT OF   OVRLND.     DIRECT     STREAM       STREAM     STREAM     STREAM   STREAMBED  STREAMBED
                SEG.NO.  NO.  STRM. RCH.    AQUIFER    STRM. RCH.    RUNOFF     PRECIP       ET          HEAD       DEPTH      WIDTH   CONDCTNC.   GRADIENT

   1    1    1     1     1    6.2250E+01  3.7978E-01   6.1870E+01  0.000E+00  0.000E+00  0.000E+00  1.09460E+03  1.553E+00  1.854E+01  8.342E-02  1.518E+00
   1    2    2     1     2    6.1870E+01  5.8817E-01   6.1282E+01  0.000E+00  0.000E+00  0.000E+00  1.08961E+03  1.547E+00  1.848E+01  1.294E-01  1.516E+00
   1    3    3     1     3    6.1282E+01  5.0163E-01   6.0781E+01  0.000E+00  0.000E+00  0.000E+00  1.08396E+03  1.540E+00  1.841E+01  1.105E-01  1.513E+00
   1    3    4     1     4    6.0781E+01  4.6194E-01   6.0319E+01  0.000E+00  0.000E+00  0.000E+00  1.07894E+03  1.534E+00  1.836E+01  1.019E-01  1.511E+00
   1    4    5     2     1    5.8319E+01  3.9026E-01   5.7928E+01  0.000E+00  0.000E+00  0.000E+00  1.07394E+03  2.003E+00  1.200E+01  7.800E-02  1.668E+00
   1    5    6     2     2    5.7928E+01  2.9977E-01   5.7629E+01  0.000E+00  0.000E+00  0.000E+00  1.06851E+03  1.996E+00  1.200E+01  6.000E-02  1.665E+00
   1    6    6     2     3    5.7629E+01  2.9940E-01   5.7329E+01  0.000E+00  0.000E+00  0.000E+00  1.06378E+03  1.990E+00  1.200E+01  6.000E-02  1.663E+00
   1    7    6     2     4    5.7329E+01  2.9903E-01   5.7030E+01  0.000E+00  0.000E+00  0.000E+00  1.05906E+03  1.984E+00  1.200E+01  6.000E-02  1.661E+00
   1    8    6     2     5    5.7030E+01  2.9865E-01   5.6732E+01  0.000E+00  0.000E+00  0.000E+00  1.05434E+03  1.978E+00  1.200E+01  6.000E-02  1.659E+00
   1    3    5     3     1    2.0000E+00  2.8252E-01   1.7175E+00  0.000E+00  0.000E+00  0.000E+00  1.07555E+03  1.909E+00  9.636E+00  7.227E-02  1.955E+00
   1    3    6     3     2    1.7175E+00  2.4905E-01   1.4684E+00  0.000E+00  0.000E+00  0.000E+00  1.07264E+03  1.727E+00  8.909E+00  6.682E-02  1.864E+00
   1    3    7     3     3    1.4684E+00  1.9718E-01   1.2712E+00  0.000E+00  0.000E+00  0.000E+00  1.06987E+03  1.555E+00  8.218E+00  5.547E-02  1.777E+00
   1    4    8     3     4    1.2712E+00  2.2567E-01   1.0456E+00  0.000E+00  0.000E+00  0.000E+00  1.06682E+03  1.364E+00  7.455E+00  6.709E-02  1.682E+00
   1    5    8     3     5    1.0456E+00  1.5790E-01   8.8768E-01  0.000E+00  0.000E+00  0.000E+00  1.06362E+03  1.164E+00  6.655E+00  4.991E-02  1.582E+00
   1    6    8     3     6    8.8768E-01  5.5980E-02   8.3170E-01  0.000E+00  0.000E+00  0.000E+00  1.06158E+03  1.036E+00  6.145E+00  1.844E-02  1.518E+00
   1    5   10     4     1    1.0000E+01  9.0919E-02   9.9091E+00  0.000E+00  0.000E+00  0.000E+00  1.07836E+03  6.368E-01  1.000E+01  2.500E-02  1.212E+00
   1    5    9     4     2    9.9091E+00  1.8158E-01   9.7275E+00  0.000E+00  0.000E+00  0.000E+00  1.07154E+03  6.315E-01  1.000E+01  5.000E-02  1.211E+00
   1    6    8     4     3    9.7275E+00  1.2689E-01   9.6006E+00  0.000E+00  0.000E+00  0.000E+00  1.06381E+03  6.256E-01  1.000E+01  3.500E-02  1.209E+00
   1    6    8     5     1    1.0432E+01  2.2686E-01   1.0205E+01  0.000E+00  0.000E+00  0.000E+00  1.05868E+03  6.790E-01  1.542E+01  6.166E-02  1.226E+00
   1    7    7     5     2    1.0205E+01  2.7894E-01   9.9265E+00  0.000E+00  0.000E+00  0.000E+00  1.05417E+03  6.732E-01  1.519E+01  7.594E-02  1.224E+00
   1    8    7     5     3    9.9265E+00  1.9221E-01   9.7343E+00  0.000E+00  0.000E+00  0.000E+00  1.04992E+03  6.676E-01  1.497E+01  5.241E-02  1.223E+00
   1    8    6     5     4    9.7343E+00  1.3577E-01   9.5985E+00  0.000E+00  0.000E+00  0.000E+00  1.04691E+03  6.637E-01  1.482E+01  3.706E-02  1.221E+00
   1    9    6     6     1    4.3896E+01  2.8250E-01   4.3613E+01  0.000E+00  0.000E+00  0.000E+00  1.04444E+03  1.708E+00  1.200E+01  6.000E-02  1.569E+00
   1   10    7     6     2    4.3613E+01  2.8211E-01   4.3331E+01  0.000E+00  0.000E+00  0.000E+00  1.03988E+03  1.702E+00  1.200E+01  6.000E-02  1.567E+00
   1   11    7     6     3    4.3331E+01  2.8171E-01   4.3049E+01  0.000E+00  0.000E+00  0.000E+00  1.03533E+03  1.695E+00  1.200E+01  6.000E-02  1.565E+00
   1   12    7     6     4    4.3049E+01  2.8131E-01   4.2768E+01  0.000E+00  0.000E+00  0.000E+00  1.03078E+03  1.688E+00  1.200E+01  6.000E-02  1.563E+00
   1   13    7     6     5    4.2768E+01  1.0451E-02   4.2758E+01  0.000E+00  0.000E+00  0.000E+00  1.02759E+03  1.685E+00  1.200E+01  2.400E-02  1.452E-01
   1   14    9     7     1    1.5000E+02  1.3359E+00   1.4866E+02  0.000E+00  0.000E+00  0.000E+00  1.03987E+03  2.288E+00  5.529E+01  5.593E-01  7.962E-01
   1   13    8     7     2    1.4866E+02  1.8202E+00   1.4684E+02  0.000E+00  0.000E+00  0.000E+00  1.03478E+03  2.279E+00  5.526E+01  6.148E-01  9.869E-01
   1   13    7     7     3    1.4684E+02  1.4137E+00   1.4543E+02  0.000E+00  0.000E+00  0.000E+00  1.02969E+03  2.271E+00  5.522E+01  5.585E-01  8.438E-01
   1   13    6     8     1    1.8819E+02  9.2334E-01   1.8726E+02  0.000E+00  0.000E+00  0.000E+00  1.02494E+03  3.064E+00  4.443E+01  4.527E-01  6.798E-01
   1   13    5     8     2    1.8726E+02  1.4452E-01   1.8712E+02  0.000E+00  0.000E+00  0.000E+00  1.01869E+03  3.061E+00  4.438E+01  4.523E-01  1.065E-01
   1   13    4     8     3    1.8712E+02 -2.5890E+00   1.8971E+02  0.000E+00  0.000E+00  0.000E+00  1.01244E+03  3.068E+00  4.449E+01  4.534E+00 -1.904E-01
   1   13    3     8     4    1.8971E+02 -3.6976E+00   1.9341E+02  0.000E+00  0.000E+00  0.000E+00  1.00621E+03  3.087E+00  4.477E+01  4.562E+00 -2.702E-01
   1   13    2     8     5    1.9341E+02 -2.7611E+00   1.9617E+02  0.000E+00  0.000E+00  0.000E+00  9.99982E+02  3.107E+00  4.505E+01  4.591E+00 -2.005E-01
   1   13    1     8     6    1.9617E+02 -2.1027E+00   1.9827E+02  0.000E+00  0.000E+00  0.000E+00  9.94996E+02  3.121E+00  4.526E+01  2.767E+00 -2.533E-01
   1    8    6     9     1    2.2434E+01  0.0000E+00   2.2434E+01  0.000E+00  0.000E+00  0.000E+00  1.08243E+03  3.680E+00  4.000E+00  0.000E+00  2.227E+00
   1    8    5     9     2    2.2434E+01  0.0000E+00   2.2434E+01  0.000E+00  0.000E+00  0.000E+00  1.08193E+03  3.680E+00  4.000E+00  0.000E+00  2.227E+00



 UBDSV3 SAVING "           GW ET" ON UNIT  61 AT TIME STEP 10, STRESS PERIOD   7
 UBDSV3 SAVING "    UZF RECHARGE" ON UNIT  61 AT TIME STEP 10, STRESS PERIOD   7
 UBDSV3 SAVING " SURFACE LEAKAGE" ON UNIT  61 AT TIME STEP 10, STRESS PERIOD   7
 UBDSV3 SAVING "       HORT+DUNN" ON UNIT  61 AT TIME STEP 10, STRESS PERIOD   7
 UBDSV3 SAVING "  STORAGE CHANGE" ON UNIT  61 AT TIME STEP 10, STRESS PERIOD   7


UNSATURATED ZONE PACKAGE VOLUMETRIC BUDGET FOR  TIME STEP    10 STRESS PERIOD    7
  ------------------------------------------------------------------------------



     CUMULATIVE VOLUMES      L**3       RATES FOR THIS TIME STEP      L**3/T
     ------------------                 ------------------------

           IN:                                      IN:
           ---                                      ---
        INFILTRATION =    99080082.1067          INFILTRATION =          23.2824

          OUT:                                     OUT:
          ----                                     ----
              UZF ET =    60928130.2082                UZF ET =          23.3175
        UZF RECHARGE =       73224.0000          UZF RECHARGE =       0.0000E+00

            IN - OUT =    38078727.8985              IN - OUT =      -3.5055E-02

          STORAGE:                                 STORAGE:
          --------                                 --------
      STORAGE CHANGE =    38094336.9696        STORAGE CHANGE =      -3.5055E-02

 PERCENT DISCREPANCY IS DIFFERENCE BETWEEN IN-OUT MINUS CHANGE IN STORAGE
 DIVIDED BY THE AVERAGE OF IN AND OUT TIMES 100

 PERCENT DISCREPANCY =          -0.00     PERCENT DISCREPANCY =           0.00






 

        AG WELLS          PERIOD    7   STEP  10
 AG WELL      1   LAYER   1   ROW     6   COL     4   RATE     0.00000    
 AG WELL      2   LAYER   1   ROW     6   COL     5   RATE     0.00000    
 AG WELL      3   LAYER   1   ROW     7   COL     4   RATE     0.00000    
 AG WELL      4   LAYER   1   ROW     7   COL     5   RATE     0.00000    
 AG WELL      5   LAYER   1   ROW     8   COL     4   RATE     0.00000    
 AG WELL      6   LAYER   1   ROW     8   COL     5   RATE     0.00000    
 
 

   DIVERSION SEGMENTS     PERIOD    7   STEP  10
 SEGMENT      9   RATE     22.4345    
 
 

        SW IRRIGATION     PERIOD    7   STEP  10
 SEGMENT      9   ROW     6   COL     4   RATE     3.73916    
 SEGMENT      9   ROW     6   COL     5   RATE     3.73916    
 SEGMENT      9   ROW     7   COL     4   RATE     3.73916    
 SEGMENT      9   ROW     7   COL     5   RATE     3.73916    
 SEGMENT      9   ROW     8   COL     4   RATE     3.73916    
 SEGMENT      9   ROW     8   COL     5   RATE     3.73916    
 
 

        GW IRRIGATION     PERIOD    7   STEP  10
 AG WELL      1   ROW     6   COL     4   RATE     0.00000    
 AG WELL      2   ROW     6   COL     5   RATE     0.00000    
 AG WELL      3   ROW     7   COL     4   RATE     0.00000    
 AG WELL      4   ROW     7   COL     5   RATE     0.00000    
 AG WELL      5   ROW     8   COL     4   RATE     0.00000    
 AG WELL      6   ROW     8   COL     5   RATE     0.00000    
 
1
  VOLUMETRIC BUDGET FOR AGRICULTURAL FIELDS AT  END OF TIME STEP   10, STRESS PERIOD   7
  ------------------------------------------------------------------------------

     CUMULATIVE VOLUMES      L**3       RATES FOR THIS TIME STEP      L**3/T
     ------------------                 ------------------------

           IN:                                      IN:
           ---                                      ---
           AG WELLS      =    39642660.0000             AG WELLS      =           0.0000
      DIVERSION SEGMENTS =    47479216.0000        DIVERSION SEGMENTS =          22.4345
           GW IRRIGATION =           0.0000             GW IRRIGATION =           0.0000
           SW IRRIGATION =           0.0000             SW IRRIGATION =           0.0000
        SYSTEM LOSSES GW =           0.0000          SYSTEM LOSSES GW =           0.0000
        SYSTEM LOSSES SW =           0.0000          SYSTEM LOSSES SW =           0.0000

                TOTAL IN =    87121872.0000                  TOTAL IN =          22.4345

          OUT:                                     OUT:
          ----                                     ----
           AG WELLS      =           0.0000             AG WELLS      =           0.0000
      DIVERSION SEGMENTS =           0.0000        DIVERSION SEGMENTS =           0.0000
           GW IRRIGATION =    39642660.0000             GW IRRIGATION =           0.0000
           SW IRRIGATION =    47480164.0000             SW IRRIGATION =          22.4349
        SYSTEM LOSSES GW =           0.0000          SYSTEM LOSSES GW =           0.0000
        SYSTEM LOSSES SW =           0.0000          SYSTEM LOSSES SW =           0.0000

               TOTAL OUT =    87122824.0000                 TOTAL OUT =          22.4349

                IN - OUT =        -952.0000                  IN - OUT =      -4.4823E-04

     PERCENT DISCREPANCY =          -0.00         PERCENT DISCREPANCY =          -0.00



1
  VOLUMETRIC BUDGET FOR ENTIRE MODEL AT END OF TIME STEP   10, STRESS PERIOD   7
  ------------------------------------------------------------------------------

     CUMULATIVE VOLUMES      L**3       RATES FOR THIS TIME STEP      L**3/T
     ------------------                 ------------------------

           IN:                                      IN:
           ---                                      ---
             STORAGE     =    68672848.0000               STORAGE     =           1.9751
       CONSTANT HEAD     =           0.0000         CONSTANT HEAD     =           0.0000
     HEAD DEP BOUNDS     =     4032308.7500       HEAD DEP BOUNDS     =           0.2858
      STREAM LEAKAGE     =   172188720.0000        STREAM LEAKAGE     =          12.6958
        UZF RECHARGE     =       73223.9531          UZF RECHARGE     =           0.0000
               GW ET     =           0.0000                 GW ET     =           0.0000
     SURFACE LEAKAGE     =           0.0000       SURFACE LEAKAGE     =           0.0000
           AG WELLS      =           0.0000             AG WELLS      =           0.0000

                TOTAL IN =   244967104.0000                  TOTAL IN =          14.9567

          OUT:                                     OUT:
          ----                                     ----
             STORAGE     =    51981964.0000               STORAGE     =           3.2324
       CONSTANT HEAD     =           0.0000         CONSTANT HEAD     =           0.0000
     HEAD DEP BOUNDS     =     4117457.5000       HEAD DEP BOUNDS     =           0.2947
      STREAM LEAKAGE     =   147988304.0000        STREAM LEAKAGE     =          11.1503
        UZF RECHARGE     =           0.0000          UZF RECHARGE     =           0.0000
               GW ET     =     1240193.0000                 GW ET     =           0.2790
     SURFACE LEAKAGE     =           0.0000       SURFACE LEAKAGE     =           0.0000
           AG WELLS      =    39642660.0000             AG WELLS      =           0.0000

               TOTAL OUT =   244970576.0000                 TOTAL OUT =          14.9565

                IN - OUT =       -3472.0000                  IN - OUT =       1.8787E-04

     PERCENT DISCREPANCY =          -0.00         PERCENT DISCREPANCY =           0.00






         TIME SUMMARY AT END OF TIME STEP   10 IN STRESS PERIOD    7
                    SECONDS     MINUTES      HOURS       DAYS        YEARS
                    -----------------------------------------------------------
   TIME STEP LENGTH  87667.      1461.1      24.352      1.0147     2.77799E-03
 STRESS PERIOD TIME 8.76667E+05  14611.      243.52      10.147     2.77799E-02
         TOTAL TIME 1.41131E+07 2.35218E+05  3920.3      163.35     0.44722    
1
 
 SOLVING FOR HEAD 
                                                   Max.-Head-Change                         Max.-Flux-Residual
  Residual-Control   Outer-Iter.   Inner-Iter.     Column Row Layer    Maximum-Head-Change  Column Row Layer    Maximum-Flux-Residual          L2-NORM 
          0                 1           2             4    7     1       0.6934574564E-02       4   13    1         0.3878322748E+00      0.1036243396E+01
          0                 2           2             4    7     1      -0.6745463067E-03       4   13    1        -0.3842397322E-01      0.1027724262E+00
          0                 3           2             4    7     1      -0.6961361366E-01       5    8    1        -0.3737584696E+01      0.9194941255E+01
          0                 4           2             4    7     1       0.7250745836E-01       5    6    1         0.4000811942E+01      0.9800059455E+01
          0                 5           2             4    7     1      -0.2885856690E-02       4    8    1        -0.1636856269E+00      0.4009347557E+00
          0                 6           1             4    7     1       0.3561022926E-04       4    8    1         0.2075960648E-02      0.5084888645E-02

    ------------------------------------------------
       NWT REQUIRED            6 OUTER ITERATIONS 
       AND A TOTAL OF         11 INNER ITERATIONS.
    ------------------------------------------------

 NO OUTPUT CONTROL FOR STRESS PERIOD    7   TIME STEP   11
 
 SOLVING FOR HEAD 
                                                   Max.-Head-Change                         Max.-Flux-Residual
  Residual-Control   Outer-Iter.   Inner-Iter.     Column Row Layer    Maximum-Head-Change  Column Row Layer    Maximum-Flux-Residual          L2-NORM 
          0                 1           2             4    7     1       0.6831393612E-02       4   13    1         0.4093521966E+00      0.1049054112E+01
          0                 2           2             4    7     1      -0.6645095921E-03       4   13    1        -0.4055688176E-01      0.1039548812E+00
          0                 3           2             4    7     1      -0.6961550851E-01       5    8    1        -0.3737675017E+01      0.9195211737E+01
          0                 4           2             4    7     1       0.7250874726E-01       5    6    1         0.4000882892E+01      0.9800234162E+01
          0                 5           2             4    7     1      -0.2885907990E-02       4    8    1        -0.1636885428E+00      0.4009418883E+00
          0                 6           1             4    7     1       0.3561086215E-04       4    8    1         0.2075997623E-02      0.5084973982E-02

    ------------------------------------------------
       NWT REQUIRED            6 OUTER ITERATIONS 
       AND A TOTAL OF         11 INNER ITERATIONS.
    ------------------------------------------------

 NO OUTPUT CONTROL FOR STRESS PERIOD    7   TIME STEP   12
 
 SOLVING FOR HEAD 
                                                   Max.-Head-Change                         Max.-Flux-Residual
  Residual-Control   Outer-Iter.   Inner-Iter.     Column Row Layer    Maximum-Head-Change  Column Row Layer    Maximum-Flux-Residual          L2-NORM 
          0                 1           2             4    7     1       0.6730107288E-02       4   13    1         0.4267454299E+00      0.1059814925E+01
          0                 2           2             4    7     1      -0.6546571740E-03       4   13    1        -0.4228236073E-01      0.1049433092E+00
          0                 3           2             4    7     1      -0.6961736396E-01       5    8    1        -0.3737763175E+01      0.9195473078E+01
          0                 4           2             4    7     1       0.7251000770E-01       5    6    1         0.4000952259E+01      0.9800404972E+01
          0                 5           2             4    7     1      -0.2885958157E-02       4    8    1        -0.1636913939E+00      0.4009488921E+00
          0                 6           1             4    7     1       0.3561148137E-04       4    8    1         0.2076033796E-02      0.5085069585E-02

    ------------------------------------------------
       NWT REQUIRED            6 OUTER ITERATIONS 
       AND A TOTAL OF         11 INNER ITERATIONS.
    ------------------------------------------------

 NO OUTPUT CONTROL FOR STRESS PERIOD    7   TIME STEP   13
 
 SOLVING FOR HEAD 
                                                   Max.-Head-Change                         Max.-Flux-Residual
  Residual-Control   Outer-Iter.   Inner-Iter.     Column Row Layer    Maximum-Head-Change  Column Row Layer    Maximum-Flux-Residual          L2-NORM 
          0                 1           2             4   13     1       0.6833947211E-02       4   13    1         0.4408165140E+00      0.1068698797E+01
          0                 2           2             4   13     1      -0.6585576836E-03       4   13    1        -0.4367611113E-01      0.1057532834E+00
          0                 3           2             4    7     1      -0.6961918199E-01       5    8    1        -0.3737849202E+01      0.9195725948E+01
          0                 4           2             4    7     1       0.7251123978E-01       5    6    1         0.4001020045E+01      0.9800571904E+01
          0                 5           2             4    7     1      -0.2886007196E-02       4    8    1        -0.1636941805E+00      0.4009557162E+00
          0                 6           1             4    7     1       0.3561208671E-04       4    8    1         0.2076069110E-02      0.5085161475E-02

    ------------------------------------------------
       NWT REQUIRED            6 OUTER ITERATIONS 
       AND A TOTAL OF         11 INNER ITERATIONS.
    ------------------------------------------------

 NO OUTPUT CONTROL FOR STRESS PERIOD    7   TIME STEP   14
 
 SOLVING FOR HEAD 
                                                   Max.-Head-Change                         Max.-Flux-Residual
  Residual-Control   Outer-Iter.   Inner-Iter.     Column Row Layer    Maximum-Head-Change  Column Row Layer    Maximum-Flux-Residual          L2-NORM 
          0                 1           2             4   13     1       0.7010690456E-02       4   13    1         0.4521963688E+00      0.1075942207E+01
          0                 2           2             4   13     1      -0.6756109642E-03       4   13    1        -0.4480504169E-01      0.1064083792E+00
          0                 3           2             4    7     1      -0.6962096970E-01       5    8    1        -0.3737933496E+01      0.9195972270E+01
          0                 4           2             4    7     1       0.7251245266E-01       5    6    1         0.4001086755E+01      0.9800736236E+01
          0                 5           2             4    7     1      -0.2886055470E-02       4    8    1        -0.1636969237E+00      0.4009624286E+00
          0                 6           1             4    7     1       0.3561268218E-04       4    8    1         0.2076103915E-02      0.5085239761E-02

    ------------------------------------------------
       NWT REQUIRED            6 OUTER ITERATIONS 
       AND A TOTAL OF         11 INNER ITERATIONS.
    ------------------------------------------------

 OUTPUT CONTROL FOR STRESS PERIOD    7   TIME STEP   15
    PRINT BUDGET
    SAVE BUDGET
 UBDSV1 SAVING "         STORAGE" ON UNIT 102 AT TIME STEP 15, STRESS PERIOD   7
 UBDSV2 SAVING "   CONSTANT HEAD" ON UNIT 102 AT TIME STEP 15, STRESS PERIOD   7
 UBDSV1 SAVING "FLOW RIGHT FACE " ON UNIT 102 AT TIME STEP 15, STRESS PERIOD   7
 UBDSV1 SAVING "FLOW FRONT FACE " ON UNIT 102 AT TIME STEP 15, STRESS PERIOD   7

  HEAD DEP BOUNDS   PERIOD    7   STEP    15
 BOUNDARY      1   LAYER   1   ROW    13   COL     1   RATE   -0.294333    
 BOUNDARY      2   LAYER   1   ROW    14   COL     9   RATE    0.285765    



 STREAM LISTING     PERIOD      7   STEP       15

 LAYER ROW COL. STREAM  RCH.  FLOW INTO     FLOW TO   FLOW OUT OF   OVRLND.     DIRECT     STREAM       STREAM     STREAM     STREAM   STREAMBED  STREAMBED
                SEG.NO.  NO.  STRM. RCH.    AQUIFER    STRM. RCH.    RUNOFF     PRECIP       ET          HEAD       DEPTH      WIDTH   CONDCTNC.   GRADIENT

   1    1    1     1     1    6.2250E+01  3.7978E-01   6.1870E+01  0.000E+00  0.000E+00  0.000E+00  1.09460E+03  1.553E+00  1.854E+01  8.342E-02  1.518E+00
   1    2    2     1     2    6.1870E+01  5.8817E-01   6.1282E+01  0.000E+00  0.000E+00  0.000E+00  1.08961E+03  1.547E+00  1.848E+01  1.294E-01  1.516E+00
   1    3    3     1     3    6.1282E+01  5.0163E-01   6.0781E+01  0.000E+00  0.000E+00  0.000E+00  1.08396E+03  1.540E+00  1.841E+01  1.105E-01  1.513E+00
   1    3    4     1     4    6.0781E+01  4.6194E-01   6.0319E+01  0.000E+00  0.000E+00  0.000E+00  1.07894E+03  1.534E+00  1.836E+01  1.019E-01  1.511E+00
   1    4    5     2     1    5.8319E+01  3.9026E-01   5.7928E+01  0.000E+00  0.000E+00  0.000E+00  1.07394E+03  2.003E+00  1.200E+01  7.800E-02  1.668E+00
   1    5    6     2     2    5.7928E+01  2.9977E-01   5.7629E+01  0.000E+00  0.000E+00  0.000E+00  1.06851E+03  1.996E+00  1.200E+01  6.000E-02  1.665E+00
   1    6    6     2     3    5.7629E+01  2.9940E-01   5.7329E+01  0.000E+00  0.000E+00  0.000E+00  1.06378E+03  1.990E+00  1.200E+01  6.000E-02  1.663E+00
   1    7    6     2     4    5.7329E+01  2.9903E-01   5.7030E+01  0.000E+00  0.000E+00  0.000E+00  1.05906E+03  1.984E+00  1.200E+01  6.000E-02  1.661E+00
   1    8    6     2     5    5.7030E+01  2.9865E-01   5.6732E+01  0.000E+00  0.000E+00  0.000E+00  1.05434E+03  1.978E+00  1.200E+01  6.000E-02  1.659E+00
   1    3    5     3     1    2.0000E+00  2.8252E-01   1.7175E+00  0.000E+00  0.000E+00  0.000E+00  1.07555E+03  1.909E+00  9.636E+00  7.227E-02  1.955E+00
   1    3    6     3     2    1.7175E+00  2.4905E-01   1.4684E+00  0.000E+00  0.000E+00  0.000E+00  1.07264E+03  1.727E+00  8.909E+00  6.682E-02  1.864E+00
   1    3    7     3     3    1.4684E+00  1.9718E-01   1.2712E+00  0.000E+00  0.000E+00  0.000E+00  1.06987E+03  1.555E+00  8.218E+00  5.547E-02  1.777E+00
   1    4    8     3     4    1.2712E+00  2.2567E-01   1.0456E+00  0.000E+00  0.000E+00  0.000E+00  1.06682E+03  1.364E+00  7.455E+00  6.709E-02  1.682E+00
   1    5    8     3     5    1.0456E+00  1.5790E-01   8.8768E-01  0.000E+00  0.000E+00  0.000E+00  1.06362E+03  1.164E+00  6.655E+00  4.991E-02  1.582E+00
   1    6    8     3     6    8.8768E-01  5.5980E-02   8.3170E-01  0.000E+00  0.000E+00  0.000E+00  1.06158E+03  1.036E+00  6.145E+00  1.844E-02  1.518E+00
   1    5   10     4     1    1.0000E+01  9.0919E-02   9.9091E+00  0.000E+00  0.000E+00  0.000E+00  1.07836E+03  6.368E-01  1.000E+01  2.500E-02  1.212E+00
   1    5    9     4     2    9.9091E+00  1.8158E-01   9.7275E+00  0.000E+00  0.000E+00  0.000E+00  1.07154E+03  6.315E-01  1.000E+01  5.000E-02  1.211E+00
   1    6    8     4     3    9.7275E+00  1.2689E-01   9.6006E+00  0.000E+00  0.000E+00  0.000E+00  1.06381E+03  6.256E-01  1.000E+01  3.500E-02  1.209E+00
   1    6    8     5     1    1.0432E+01  2.2686E-01   1.0205E+01  0.000E+00  0.000E+00  0.000E+00  1.05868E+03  6.790E-01  1.542E+01  6.166E-02  1.226E+00
   1    7    7     5     2    1.0205E+01  2.7894E-01   9.9265E+00  0.000E+00  0.000E+00  0.000E+00  1.05417E+03  6.732E-01  1.519E+01  7.594E-02  1.224E+00
   1    8    7     5     3    9.9265E+00  1.9221E-01   9.7343E+00  0.000E+00  0.000E+00  0.000E+00  1.04992E+03  6.676E-01  1.497E+01  5.241E-02  1.223E+00
   1    8    6     5     4    9.7343E+00  1.3577E-01   9.5985E+00  0.000E+00  0.000E+00  0.000E+00  1.04691E+03  6.637E-01  1.482E+01  3.706E-02  1.221E+00
   1    9    6     6     1    4.3894E+01  2.8250E-01   4.3611E+01  0.000E+00  0.000E+00  0.000E+00  1.04444E+03  1.708E+00  1.200E+01  6.000E-02  1.569E+00
   1   10    7     6     2    4.3611E+01  2.8210E-01   4.3329E+01  0.000E+00  0.000E+00  0.000E+00  1.03988E+03  1.702E+00  1.200E+01  6.000E-02  1.567E+00
   1   11    7     6     3    4.3329E+01  2.8170E-01   4.3047E+01  0.000E+00  0.000E+00  0.000E+00  1.03533E+03  1.695E+00  1.200E+01  6.000E-02  1.565E+00
   1   12    7     6     4    4.3047E+01  2.8131E-01   4.2766E+01  0.000E+00  0.000E+00  0.000E+00  1.03078E+03  1.688E+00  1.200E+01  6.000E-02  1.563E+00
   1   13    7     6     5    4.2766E+01  1.0412E-02   4.2756E+01  0.000E+00  0.000E+00  0.000E+00  1.02759E+03  1.685E+00  1.200E+01  2.400E-02  1.446E-01
   1   14    9     7     1    1.5000E+02  1.3359E+00   1.4866E+02  0.000E+00  0.000E+00  0.000E+00  1.03987E+03  2.288E+00  5.529E+01  5.593E-01  7.962E-01
   1   13    8     7     2    1.4866E+02  1.8197E+00   1.4684E+02  0.000E+00  0.000E+00  0.000E+00  1.03478E+03  2.279E+00  5.526E+01  6.148E-01  9.866E-01
   1   13    7     7     3    1.4684E+02  1.4128E+00   1.4543E+02  0.000E+00  0.000E+00  0.000E+00  1.02969E+03  2.271E+00  5.522E+01  5.585E-01  8.433E-01
   1   13    6     8     1    1.8819E+02  9.2410E-01   1.8726E+02  0.000E+00  0.000E+00  0.000E+00  1.02494E+03  3.064E+00  4.443E+01  4.527E-01  6.804E-01
   1   13    5     8     2    1.8726E+02  1.4570E-01   1.8712E+02  0.000E+00  0.000E+00  0.000E+00  1.01869E+03  3.061E+00  4.438E+01  4.523E-01  1.074E-01
   1   13    4     8     3    1.8712E+02 -2.5641E+00   1.8968E+02  0.000E+00  0.000E+00  0.000E+00  1.01244E+03  3.068E+00  4.449E+01  4.534E+00 -1.885E-01
   1   13    3     8     4    1.8968E+02 -3.6694E+00   1.9335E+02  0.000E+00  0.000E+00  0.000E+00  1.00621E+03  3.087E+00  4.476E+01  4.562E+00 -2.681E-01
   1   13    2     8     5    1.9335E+02 -2.6950E+00   1.9605E+02  0.000E+00  0.000E+00  0.000E+00  9.99981E+02  3.106E+00  4.504E+01  4.590E+00 -1.957E-01
   1   13    1     8     6    1.9605E+02 -2.0752E+00   1.9812E+02  0.000E+00  0.000E+00  0.000E+00  9.94995E+02  3.120E+00  4.525E+01  2.766E+00 -2.500E-01
   1    8    6     9     1    2.2436E+01  0.0000E+00   2.2436E+01  0.000E+00  0.000E+00  0.000E+00  1.08243E+03  3.680E+00  4.000E+00  0.000E+00  2.227E+00
   1    8    5     9     2    2.2436E+01  0.0000E+00   2.2436E+01  0.000E+00  0.000E+00  0.000E+00  1.08193E+03  3.680E+00  4.000E+00  0.000E+00  2.227E+00



 UBDSV3 SAVING "           GW ET" ON UNIT  61 AT TIME STEP 15, STRESS PERIOD   7
 UBDSV3 SAVING "    UZF RECHARGE" ON UNIT  61 AT TIME STEP 15, STRESS PERIOD   7
 UBDSV3 SAVING " SURFACE LEAKAGE" ON UNIT  61 AT TIME STEP 15, STRESS PERIOD   7
 UBDSV3 SAVING "       HORT+DUNN" ON UNIT  61 AT TIME STEP 15, STRESS PERIOD   7
 UBDSV3 SAVING "  STORAGE CHANGE" ON UNIT  61 AT TIME STEP 15, STRESS PERIOD   7


UNSATURATED ZONE PACKAGE VOLUMETRIC BUDGET FOR  TIME STEP    15 STRESS PERIOD    7
  ------------------------------------------------------------------------------



     CUMULATIVE VOLUMES      L**3       RATES FOR THIS TIME STEP      L**3/T
     ------------------                 ------------------------

           IN:                                      IN:
           ---                                      ---
        INFILTRATION =   109286059.4611          INFILTRATION =          23.2843

          OUT:                                     OUT:
          ----                                     ----
              UZF ET =    71148967.6876                UZF ET =          23.3175
        UZF RECHARGE =       73224.0000          UZF RECHARGE =       0.0000E+00

            IN - OUT =    38063867.7735              IN - OUT =      -3.3159E-02

          STORAGE:                                 STORAGE:
          --------                                 --------
      STORAGE CHANGE =    38079476.8503        STORAGE CHANGE =      -3.3160E-02

 PERCENT DISCREPANCY IS DIFFERENCE BETWEEN IN-OUT MINUS CHANGE IN STORAGE
 DIVIDED BY THE AVERAGE OF IN AND OUT TIMES 100

 PERCENT DISCREPANCY =          -0.00     PERCENT DISCREPANCY =           0.00






 

        AG WELLS          PERIOD    7   STEP  15
 AG WELL      1   LAYER   1   ROW     6   COL     4   RATE     0.00000    
 AG WELL      2   LAYER   1   ROW     6   COL     5   RATE     0.00000    
 AG WELL      3   LAYER   1   ROW     7   COL     4   RATE     0.00000    
 AG WELL      4   LAYER   1   ROW     7   COL     5   RATE     0.00000    
 AG WELL      5   LAYER   1   ROW     8   COL     4   RATE     0.00000    
 AG WELL      6   LAYER   1   ROW     8   COL     5   RATE     0.00000    
 
 

   DIVERSION SEGMENTS     PERIOD    7   STEP  15
 SEGMENT      9   RATE     22.4364    
 
 

        SW IRRIGATION     PERIOD    7   STEP  15
 SEGMENT      9   ROW     6   COL     4   RATE     3.73947    
 SEGMENT      9   ROW     6   COL     5   RATE     3.73947    
 SEGMENT      9   ROW     7   COL     4   RATE     3.73947    
 SEGMENT      9   ROW     7   COL     5   RATE     3.73947    
 SEGMENT      9   ROW     8   COL     4   RATE     3.73947    
 SEGMENT      9   ROW     8   COL     5   RATE     3.73947    
 
 

        GW IRRIGATION     PERIOD    7   STEP  15
 AG WELL      1   ROW     6   COL     4   RATE     0.00000    
 AG WELL      2   ROW     6   COL     5   RATE     0.00000    
 AG WELL      3   ROW     7   COL     4   RATE     0.00000    
 AG WELL      4   ROW     7   COL     5   RATE     0.00000    
 AG WELL      5   ROW     8   COL     4   RATE     0.00000    
 AG WELL      6   ROW     8   COL     5   RATE     0.00000    
 
1
  VOLUMETRIC BUDGET FOR AGRICULTURAL FIELDS AT  END OF TIME STEP   15, STRESS PERIOD   7
  ------------------------------------------------------------------------------

     CUMULATIVE VOLUMES      L**3       RATES FOR THIS TIME STEP      L**3/T
     ------------------                 ------------------------

           IN:                                      IN:
           ---                                      ---
           AG WELLS      =    39642660.0000             AG WELLS      =           0.0000
      DIVERSION SEGMENTS =    57313512.0000        DIVERSION SEGMENTS =          22.4364
           GW IRRIGATION =           0.0000             GW IRRIGATION =           0.0000
           SW IRRIGATION =           0.0000             SW IRRIGATION =           0.0000
        SYSTEM LOSSES GW =           0.0000          SYSTEM LOSSES GW =           0.0000
        SYSTEM LOSSES SW =           0.0000          SYSTEM LOSSES SW =           0.0000

                TOTAL IN =    96956176.0000                  TOTAL IN =          22.4364

          OUT:                                     OUT:
          ----                                     ----
           AG WELLS      =           0.0000             AG WELLS      =           0.0000
      DIVERSION SEGMENTS =           0.0000        DIVERSION SEGMENTS =           0.0000
           GW IRRIGATION =    39642660.0000             GW IRRIGATION =           0.0000
           SW IRRIGATION =    57314656.0000             SW IRRIGATION =          22.4368
        SYSTEM LOSSES GW =           0.0000          SYSTEM LOSSES GW =           0.0000
        SYSTEM LOSSES SW =           0.0000          SYSTEM LOSSES SW =           0.0000

               TOTAL OUT =    96957312.0000                 TOTAL OUT =          22.4368

                IN - OUT =       -1136.0000                  IN - OUT =      -4.4823E-04

     PERCENT DISCREPANCY =          -0.00         PERCENT DISCREPANCY =          -0.00



1
  VOLUMETRIC BUDGET FOR ENTIRE MODEL AT END OF TIME STEP   15, STRESS PERIOD   7
  ------------------------------------------------------------------------------

     CUMULATIVE VOLUMES      L**3       RATES FOR THIS TIME STEP      L**3/T
     ------------------                 ------------------------

           IN:                                      IN:
           ---                                      ---
             STORAGE     =    69440288.0000               STORAGE     =           1.6260
       CONSTANT HEAD     =           0.0000         CONSTANT HEAD     =           0.0000
     HEAD DEP BOUNDS     =     4157568.7500       HEAD DEP BOUNDS     =           0.2858
      STREAM LEAKAGE     =   177753856.0000        STREAM LEAKAGE     =          12.6963
        UZF RECHARGE     =       73223.9531          UZF RECHARGE     =           0.0000
               GW ET     =           0.0000                 GW ET     =           0.0000
     SURFACE LEAKAGE     =           0.0000       SURFACE LEAKAGE     =           0.0000
           AG WELLS      =           0.0000             AG WELLS      =           0.0000

                TOTAL IN =   251424928.0000                  TOTAL IN =          14.6081

          OUT:                                     OUT:
          ----                                     ----
             STORAGE     =    53368804.0000               STORAGE     =           3.1202
       CONSTANT HEAD     =           0.0000         CONSTANT HEAD     =           0.0000
     HEAD DEP BOUNDS     =     4246540.5000       HEAD DEP BOUNDS     =           0.2943
      STREAM LEAKAGE     =   152834368.0000        STREAM LEAKAGE     =          11.0037
        UZF RECHARGE     =           0.0000          UZF RECHARGE     =           0.0000
               GW ET     =     1335971.6250                 GW ET     =           0.1897
     SURFACE LEAKAGE     =           0.0000       SURFACE LEAKAGE     =           0.0000
           AG WELLS      =    39642660.0000             AG WELLS      =           0.0000

               TOTAL OUT =   251428336.0000                 TOTAL OUT =          14.6079

                IN - OUT =       -3408.0000                  IN - OUT =       1.8692E-04

     PERCENT DISCREPANCY =          -0.00         PERCENT DISCREPANCY =           0.00






         TIME SUMMARY AT END OF TIME STEP   15 IN STRESS PERIOD    7
                    SECONDS     MINUTES      HOURS       DAYS        YEARS
                    -----------------------------------------------------------
   TIME STEP LENGTH  87667.      1461.1      24.352      1.0147     2.77799E-03
 STRESS PERIOD TIME 1.31500E+06  21917.      365.28      15.220     4.16698E-02
         TOTAL TIME 1.45514E+07 2.42524E+05  4042.1      168.42     0.46111    
1
 
 SOLVING FOR HEAD 
                                                   Max.-Head-Change                         Max.-Flux-Residual
  Residual-Control   Outer-Iter.   Inner-Iter.     Column Row Layer    Maximum-Head-Change  Column Row Layer    Maximum-Flux-Residual          L2-NORM 
          0                 1           2             4   13     1       0.7153958734E-02       4   13    1         0.4614161948E+00      0.1081762527E+01
          0                 2           2             4   13     1      -0.6894102565E-03       4   13    1        -0.4571809866E-01      0.1069265551E+00
          0                 3           2             4    7     1      -0.6962272639E-01       5    8    1        -0.3738015852E+01      0.9196210726E+01
          0                 4           2             4    7     1       0.7251364190E-01       5    6    1         0.4001152136E+01      0.9800897250E+01
          0                 5           2             4    7     1      -0.2886102803E-02       4    8    1        -0.1636996127E+00      0.4009690271E+00
          0                 6           1             4    7     1       0.3561326646E-04       4    8    1         0.2076138004E-02      0.5085330343E-02

    ------------------------------------------------
       NWT REQUIRED            6 OUTER ITERATIONS 
       AND A TOTAL OF         11 INNER ITERATIONS.
    ------------------------------------------------

 NO OUTPUT CONTROL FOR STRESS PERIOD    7   TIME STEP   16
 
 SOLVING FOR HEAD 
                                                   Max.-Head-Change                         Max.-Flux-Residual
  Residual-Control   Outer-Iter.   Inner-Iter.     Column Row Layer    Maximum-Head-Change  Column Row Layer    Maximum-Flux-Residual          L2-NORM 
          0                 1           2             4   13     1       0.7269981097E-02       4   13    1         0.4688781725E+00      0.1086359535E+01
          0                 2           2             4   13     1      -0.7005942950E-03       4   13    1        -0.4645765778E-01      0.1073299767E+00
          0                 3           2             4    7     1      -0.6962444401E-01       5    8    1        -0.3738096175E+01      0.9196442220E+01
          0                 4           2             4    7     1       0.7251480271E-01       5    6    1         0.4001215943E+01      0.9801054441E+01
          0                 5           2             4    7     1      -0.2886149005E-02       4    8    1        -0.1637022375E+00      0.4009754592E+00
          0                 6           1             4    7     1       0.3561383595E-04       4    8    1         0.2076171286E-02      0.5085410715E-02

    ------------------------------------------------
       NWT REQUIRED            6 OUTER ITERATIONS 
       AND A TOTAL OF         11 INNER ITERATIONS.
    ------------------------------------------------

 NO OUTPUT CONTROL FOR STRESS PERIOD    7   TIME STEP   17
 
 SOLVING FOR HEAD 
                                                   Max.-Head-Change                         Max.-Flux-Residual
  Residual-Control   Outer-Iter.   Inner-Iter.     Column Row Layer    Maximum-Head-Change  Column Row Layer    Maximum-Flux-Residual          L2-NORM 
          0                 1           2             4   13     1       0.7364121000E-02       4   13    1         0.4749286574E+00      0.1089917265E+01
          0                 2           2             4   13     1      -0.7096695520E-03       4   13    1        -0.4705735515E-01      0.1076355212E+00
          0                 3           2             4    7     1      -0.6962614234E-01       5    8    1        -0.3738175445E+01      0.9196668926E+01
          0                 4           2             4    7     1       0.7251595367E-01       5    6    1         0.4001279191E+01      0.9801210251E+01
          0                 5           2             4    7     1      -0.2886194815E-02       4    8    1        -0.1637048398E+00      0.4009818318E+00
          0                 6           1             4    7     1       0.3561440185E-04       4    8    1         0.2076204296E-02      0.5085489736E-02

    ------------------------------------------------
       NWT REQUIRED            6 OUTER ITERATIONS 
       AND A TOTAL OF         11 INNER ITERATIONS.
    ------------------------------------------------

 NO OUTPUT CONTROL FOR STRESS PERIOD    7   TIME STEP   18
 
 SOLVING FOR HEAD 
                                                   Max.-Head-Change                         Max.-Flux-Residual
  Residual-Control   Outer-Iter.   Inner-Iter.     Column Row Layer    Maximum-Head-Change  Column Row Layer    Maximum-Flux-Residual          L2-NORM 
          0                 1           2             4   13     1       0.7440593265E-02       4   13    1         0.4798400895E+00      0.1092619956E+01
          0                 2           2             4   13     1      -0.7170410451E-03       4   13    1        -0.4754412064E-01      0.1078602137E+00
          0                 3           2             4    7     1      -0.6962780183E-01       5    8    1        -0.3738252513E+01      0.9196888830E+01
          0                 4           2             4    7     1       0.7251707622E-01       5    6    1         0.4001340869E+01      0.9801362350E+01
          0                 5           2             4    7     1      -0.2886239494E-02       4    8    1        -0.1637073774E+00      0.4009880364E+00
          0                 6           1             4    7     1       0.3561495319E-04       4    8    1         0.2076236460E-02      0.5085559616E-02

    ------------------------------------------------
       NWT REQUIRED            6 OUTER ITERATIONS 
       AND A TOTAL OF         11 INNER ITERATIONS.
    ------------------------------------------------

 NO OUTPUT CONTROL FOR STRESS PERIOD    7   TIME STEP   19
 
 SOLVING FOR HEAD 
                                                   Max.-Head-Change                         Max.-Flux-Residual
  Residual-Control   Outer-Iter.   Inner-Iter.     Column Row Layer    Maximum-Head-Change  Column Row Layer    Maximum-Flux-Residual          L2-NORM 
          0                 1           2             4   13     1       0.7502719483E-02       4   13    1         0.4838265948E+00      0.1094579149E+01
          0                 2           2             4   13     1      -0.7230306997E-03       4   13    1        -0.4793927514E-01      0.1080153148E+00
          0                 3           2             4    7     1      -0.6962942453E-01       5    8    1        -0.3738327743E+01      0.9197102235E+01
          0                 4           2             4    7     1       0.7251817045E-01       5    6    1         0.4001400972E+01      0.9801510449E+01
          0                 5           2             4    7     1      -0.2886283046E-02       4    8    1        -0.1637098513E+00      0.4009941067E+00
          0                 6           1             4    7     1       0.3561549042E-04       4    8    1         0.2076267865E-02      0.5085644376E-02

    ------------------------------------------------
       NWT REQUIRED            6 OUTER ITERATIONS 
       AND A TOTAL OF         11 INNER ITERATIONS.
    ------------------------------------------------

 NO OUTPUT CONTROL FOR STRESS PERIOD    7   TIME STEP   20
 
 SOLVING FOR HEAD 
                                                   Max.-Head-Change                         Max.-Flux-Residual
  Residual-Control   Outer-Iter.   Inner-Iter.     Column Row Layer    Maximum-Head-Change  Column Row Layer    Maximum-Flux-Residual          L2-NORM 
          0                 1           2             4   13     1       0.7553184264E-02       4   13    1         0.4870615617E+00      0.1095924541E+01
          0                 2           2             4   13     1      -0.7279014165E-03       4   13    1        -0.4826029328E-01      0.1081129022E+00
          0                 3           2             4    7     1      -0.6963102388E-01       5    8    1        -0.3738401535E+01      0.9197311258E+01
          0                 4           2             4    7     1       0.7251925024E-01       5    6    1         0.4001460274E+01      0.9801656580E+01
          0                 5           2             4    7     1      -0.2886326023E-02       4    8    1        -0.1637122920E+00      0.4010000804E+00
          0                 6           1             4    7     1       0.3561602048E-04       4    8    1         0.2076298794E-02      0.5085723852E-02

    ------------------------------------------------
       NWT REQUIRED            6 OUTER ITERATIONS 
       AND A TOTAL OF         11 INNER ITERATIONS.
    ------------------------------------------------

 NO OUTPUT CONTROL FOR STRESS PERIOD    7   TIME STEP   21
 
 SOLVING FOR HEAD 
                                                   Max.-Head-Change                         Max.-Flux-Residual
  Residual-Control   Outer-Iter.   Inner-Iter.     Column Row Layer    Maximum-Head-Change  Column Row Layer    Maximum-Flux-Residual          L2-NORM 
          0                 1           2             4   13     1       0.7594319008E-02       4   13    1         0.4896955415E+00      0.1096756777E+01
          0                 2           2             4   13     1      -0.7318679630E-03       4   13    1        -0.4852143948E-01      0.1081611609E+00
          0                 3           2             4    7     1      -0.6963259996E-01       5    8    1        -0.3738474143E+01      0.9197515671E+01
          0                 4           2             4    7     1       0.7252031560E-01       5    6    1         0.4001518768E+01      0.9801800743E+01
          0                 5           2             4    7     1      -0.2886368425E-02       4    8    1        -0.1637146999E+00      0.4010059987E+00
          0                 6           1             4    7     1       0.3561654382E-04       4    8    1         0.2076329346E-02      0.5085797273E-02

    ------------------------------------------------
       NWT REQUIRED            6 OUTER ITERATIONS 
       AND A TOTAL OF         11 INNER ITERATIONS.
    ------------------------------------------------

 NO OUTPUT CONTROL FOR STRESS PERIOD    7   TIME STEP   22
 
 SOLVING FOR HEAD 
                                                   Max.-Head-Change                         Max.-Flux-Residual
  Residual-Control   Outer-Iter.   Inner-Iter.     Column Row Layer    Maximum-Head-Change  Column Row Layer    Maximum-Flux-Residual          L2-NORM 
          0                 1           2             4   13     1       0.7627887730E-02       4   13    1         0.4918423374E+00      0.1097164976E+01
          0                 2           2             4   13     1      -0.7350858456E-03       4   13    1        -0.4873299192E-01      0.1081702829E+00
          0                 3           2             4    7     1      -0.6963414223E-01       5    8    1        -0.3738545111E+01      0.9197714446E+01
          0                 4           2             4    7     1       0.7252135720E-01       5    6    1         0.4001575948E+01      0.9801941646E+01
          0                 5           2             4    7     1      -0.2886409882E-02       4    8    1        -0.1637170542E+00      0.4010117482E+00
          0                 6           1             4    7     1       0.3561705528E-04       4    8    1         0.2076359197E-02      0.5085870354E-02

    ------------------------------------------------
       NWT REQUIRED            6 OUTER ITERATIONS 
       AND A TOTAL OF         11 INNER ITERATIONS.
    ------------------------------------------------

 NO OUTPUT CONTROL FOR STRESS PERIOD    7   TIME STEP   23
 
 SOLVING FOR HEAD 
                                                   Max.-Head-Change                         Max.-Flux-Residual
  Residual-Control   Outer-Iter.   Inner-Iter.     Column Row Layer    Maximum-Head-Change  Column Row Layer    Maximum-Flux-Residual          L2-NORM 
          0                 1           2             4   13     1       0.7655377591E-02       4   13    1         0.4935978579E+00      0.1097217710E+01
          0                 2           2             4   13     1      -0.7377322438E-03       4   13    1        -0.4890674557E-01      0.1081500591E+00
          0                 3           2             4    7     1      -0.6963565245E-01       5    8    1        -0.3738614233E+01      0.9197908120E+01
          0                 4           2             4    7     1       0.7252237513E-01       5    6    1         0.4001631822E+01      0.9802079343E+01
          0                 5           2             4    7     1      -0.2886450576E-02       4    8    1        -0.1638138383E+00      0.4010560759E+00
          0                 6           1             4    7     1       0.3561773141E-04       4    8    1         0.2077149843E-02      0.5086258987E-02

    ------------------------------------------------
       NWT REQUIRED            6 OUTER ITERATIONS 
       AND A TOTAL OF         11 INNER ITERATIONS.
    ------------------------------------------------

 NO OUTPUT CONTROL FOR STRESS PERIOD    7   TIME STEP   24
 
 SOLVING FOR HEAD 
                                                   Max.-Head-Change                         Max.-Flux-Residual
  Residual-Control   Outer-Iter.   Inner-Iter.     Column Row Layer    Maximum-Head-Change  Column Row Layer    Maximum-Flux-Residual          L2-NORM 
          0                 1           2             4   13     1       0.7677844878E-02       4   13    1         0.4950303084E+00      0.1096977253E+01
          0                 2           2             4   13     1      -0.7399051782E-03       4   13    1        -0.4904919748E-01      0.1080955564E+00
          0                 3           2             4    7     1      -0.6963660974E-01       5    8    1        -0.3738682475E+01      0.9198098745E+01
          0                 4           2             4    7     1       0.7252286648E-01       5    6    1         0.4001687148E+01      0.9801351612E+01
          0                 5           2             4    7     1      -0.2886507410E-02       4    8    1        -0.1638868181E+00      0.4010907320E+00
          0                 6           1             4    7     1       0.3561825766E-04       4    8    1         0.2078481884E-02      0.5086852221E-02

    ------------------------------------------------
       NWT REQUIRED            6 OUTER ITERATIONS 
       AND A TOTAL OF         11 INNER ITERATIONS.
    ------------------------------------------------

 NO OUTPUT CONTROL FOR STRESS PERIOD    7   TIME STEP   25
 
 SOLVING FOR HEAD 
                                                   Max.-Head-Change                         Max.-Flux-Residual
  Residual-Control   Outer-Iter.   Inner-Iter.     Column Row Layer    Maximum-Head-Change  Column Row Layer    Maximum-Flux-Residual          L2-NORM 
          0                 1           2             4   13     1       0.7696252576E-02       4   13    1         0.4962016741E+00      0.1096447274E+01
          0                 2           2             4   13     1      -0.7416695877E-03       4   13    1        -0.4916460358E-01      0.1080180028E+00
          0                 3           2             4    7     1      -0.6963806889E-01       5    8    1        -0.3738749154E+01      0.9198284547E+01
          0                 4           2             4    7     1       0.7252388828E-01       5    6    1         0.4001741164E+01      0.9801547238E+01
          0                 5           2             4    7     1      -0.2886584521E-02       4    8    1        -0.1640490877E+00      0.4011618834E+00
          0                 6           1             4    7     1       0.3561920935E-04       4    8    1         0.2080527135E-02      0.5087749321E-02

    ------------------------------------------------
       NWT REQUIRED            6 OUTER ITERATIONS 
       AND A TOTAL OF         11 INNER ITERATIONS.
    ------------------------------------------------

 NO OUTPUT CONTROL FOR STRESS PERIOD    7   TIME STEP   26
 
 SOLVING FOR HEAD 
                                                   Max.-Head-Change                         Max.-Flux-Residual
  Residual-Control   Outer-Iter.   Inner-Iter.     Column Row Layer    Maximum-Head-Change  Column Row Layer    Maximum-Flux-Residual          L2-NORM 
          0                 1           2             4   13     1       0.7711362251E-02       4   13    1         0.4971612711E+00      0.1095716185E+01
          0                 2           2             4   13     1      -0.7431241080E-03       4   13    1        -0.4925955666E-01      0.1079219927E+00
          0                 3           2             4    7     1      -0.6963950396E-01       5    8    1        -0.3738814648E+01      0.9198466604E+01
          0                 4           2             4    7     1       0.7252489486E-01       5    6    1         0.4001794388E+01      0.9801739643E+01
          0                 5           2             4    7     1      -0.2886660289E-02       4    8    1        -0.1642080794E+00      0.4012317388E+00
          0                 6           1             4    7     1       0.3562014468E-04       4    8    1         0.2082543474E-02      0.5088630110E-02

    ------------------------------------------------
       NWT REQUIRED            6 OUTER ITERATIONS 
       AND A TOTAL OF         11 INNER ITERATIONS.
    ------------------------------------------------

 NO OUTPUT CONTROL FOR STRESS PERIOD    7   TIME STEP   27
 
 SOLVING FOR HEAD 
                                                   Max.-Head-Change                         Max.-Flux-Residual
  Residual-Control   Outer-Iter.   Inner-Iter.     Column Row Layer    Maximum-Head-Change  Column Row Layer    Maximum-Flux-Residual          L2-NORM 
          0                 1           2             4   13     1       0.7723892492E-02       4   13    1         0.4979551577E+00      0.1094813064E+01
          0                 2           2             4   13     1      -0.7443420980E-03       4   13    1        -0.4933891888E-01      0.1078103620E+00
          0                 3           2             4    7     1      -0.6964091433E-01       5    8    1        -0.3738878737E+01      0.9198644340E+01
          0                 4           2             4    7     1       0.7252588180E-01       5    6    1         0.4001846559E+01      0.9801928228E+01
          0                 5           2             4    7     1      -0.2886734555E-02       4    8    1        -0.1643638653E+00      0.4013002798E+00
          0                 6           1             4    7     1       0.3562106142E-04       4    8    1         0.2084519140E-02      0.5089499895E-02

    ------------------------------------------------
       NWT REQUIRED            6 OUTER ITERATIONS 
       AND A TOTAL OF         11 INNER ITERATIONS.
    ------------------------------------------------

 NO OUTPUT CONTROL FOR STRESS PERIOD    7   TIME STEP   28
 
 SOLVING FOR HEAD 
                                                   Max.-Head-Change                         Max.-Flux-Residual
  Residual-Control   Outer-Iter.   Inner-Iter.     Column Row Layer    Maximum-Head-Change  Column Row Layer    Maximum-Flux-Residual          L2-NORM 
          0                 1           2             4   13     1       0.7734231829E-02       4   13    1         0.4986085351E+00      0.1093776536E+01
          0                 2           2             4   13     1      -0.7453233520E-03       4   13    1        -0.4940264387E-01      0.1076862839E+00
          0                 3           2             4    7     1      -0.6964229902E-01       5    8    1        -0.3738941676E+01      0.9198818806E+01
          0                 4           2             4    7     1       0.7252685349E-01       5    6    1         0.4001897941E+01      0.9802113672E+01
          0                 5           2             4    7     1      -0.2886807512E-02       4    8    1        -0.1645165288E+00      0.4013675776E+00
          0                 6           1             4    7     1       0.3562196202E-04       4    8    1         0.2086455220E-02      0.5090357665E-02

    ------------------------------------------------
       NWT REQUIRED            6 OUTER ITERATIONS 
       AND A TOTAL OF         11 INNER ITERATIONS.
    ------------------------------------------------

 NO OUTPUT CONTROL FOR STRESS PERIOD    7   TIME STEP   29
 
 SOLVING FOR HEAD 
                                                   Max.-Head-Change                         Max.-Flux-Residual
  Residual-Control   Outer-Iter.   Inner-Iter.     Column Row Layer    Maximum-Head-Change  Column Row Layer    Maximum-Flux-Residual          L2-NORM 
          0                 1           2             4   13     1       0.6185784291E-02       4   13    1         0.3986296815E+00      0.9517438958E+00
          0                 2           2             4   13     1      -0.5961661672E-03       4   13    1        -0.3950068794E-01      0.9397055906E-01
          0                 3           2             4    7     1      -0.6964366392E-01       5    8    1        -0.3739003595E+01      0.9198643021E+01
          0                 4           2             4    7     1       0.7252781023E-01       5    6    1         0.4001948519E+01      0.9802294696E+01
          0                 5           2             4    7     1      -0.2886879187E-02       4    8    1        -0.1646661466E+00      0.4014336305E+00
          0                 6           1             4    7     1       0.3562284628E-04       4    8    1         0.2088352651E-02      0.5091193552E-02

    ------------------------------------------------
       NWT REQUIRED            6 OUTER ITERATIONS 
       AND A TOTAL OF         11 INNER ITERATIONS.
    ------------------------------------------------

 NO OUTPUT CONTROL FOR STRESS PERIOD    7   TIME STEP   30



 STREAM LISTING     PERIOD      7   STEP       30

 LAYER ROW COL. STREAM  RCH.  FLOW INTO     FLOW TO   FLOW OUT OF   OVRLND.     DIRECT     STREAM       STREAM     STREAM     STREAM   STREAMBED  STREAMBED
                SEG.NO.  NO.  STRM. RCH.    AQUIFER    STRM. RCH.    RUNOFF     PRECIP       ET          HEAD       DEPTH      WIDTH   CONDCTNC.   GRADIENT

   1    1    1     1     1    5.7704E+01  3.6391E-01   5.7340E+01  0.000E+00  0.000E+00  0.000E+00  1.09454E+03  1.497E+00  1.798E+01  8.092E-02  1.499E+00
   1    2    2     1     2    5.7340E+01  5.6353E-01   5.6777E+01  0.000E+00  0.000E+00  0.000E+00  1.08955E+03  1.491E+00  1.792E+01  1.255E-01  1.497E+00
   1    3    3     1     3    5.6777E+01  4.8055E-01   5.6296E+01  0.000E+00  0.000E+00  0.000E+00  1.08390E+03  1.485E+00  1.786E+01  1.071E-01  1.495E+00
   1    3    4     1     4    5.6296E+01  4.4247E-01   5.5854E+01  0.000E+00  0.000E+00  0.000E+00  1.07889E+03  1.479E+00  1.780E+01  9.879E-02  1.493E+00
   1    4    5     2     1    5.3854E+01  3.8295E-01   5.3471E+01  0.000E+00  0.000E+00  0.000E+00  1.07384E+03  1.910E+00  1.200E+01  7.800E-02  1.637E+00
   1    5    6     2     2    5.3471E+01  2.9414E-01   5.3177E+01  0.000E+00  0.000E+00  0.000E+00  1.06841E+03  1.902E+00  1.200E+01  6.000E-02  1.634E+00
   1    6    6     2     3    5.3177E+01  2.9376E-01   5.2883E+01  0.000E+00  0.000E+00  0.000E+00  1.06369E+03  1.896E+00  1.200E+01  6.000E-02  1.632E+00
   1    7    6     2     4    5.2883E+01  2.9339E-01   5.2590E+01  0.000E+00  0.000E+00  0.000E+00  1.05897E+03  1.890E+00  1.200E+01  6.000E-02  1.630E+00
   1    8    6     2     5    5.2590E+01  2.9301E-01   5.2297E+01  0.000E+00  0.000E+00  0.000E+00  1.05424E+03  1.883E+00  1.200E+01  6.000E-02  1.628E+00
   1    3    5     3     1    2.0000E+00  2.8252E-01   1.7175E+00  0.000E+00  0.000E+00  0.000E+00  1.07555E+03  1.909E+00  9.636E+00  7.227E-02  1.955E+00
   1    3    6     3     2    1.7175E+00  2.4905E-01   1.4684E+00  0.000E+00  0.000E+00  0.000E+00  1.07264E+03  1.727E+00  8.909E+00  6.682E-02  1.864E+00
   1    3    7     3     3    1.4684E+00  1.9718E-01   1.2712E+00  0.000E+00  0.000E+00  0.000E+00  1.06987E+03  1.555E+00  8.218E+00  5.547E-02  1.777E+00
   1    4    8     3     4    1.2712E+00  2.2567E-01   1.0456E+00  0.000E+00  0.000E+00  0.000E+00  1.06682E+03  1.364E+00  7.455E+00  6.709E-02  1.682E+00
   1    5    8     3     5    1.0456E+00  1.5790E-01   8.8768E-01  0.000E+00  0.000E+00  0.000E+00  1.06362E+03  1.164E+00  6.655E+00  4.991E-02  1.582E+00
   1    6    8     3     6    8.8768E-01  5.5980E-02   8.3170E-01  0.000E+00  0.000E+00  0.000E+00  1.06158E+03  1.036E+00  6.145E+00  1.844E-02  1.518E+00
   1    5   10     4     1    1.0000E+01  9.0919E-02   9.9091E+00  0.000E+00  0.000E+00  0.000E+00  1.07836E+03  6.368E-01  1.000E+01  2.500E-02  1.212E+00
   1    5    9     4     2    9.9091E+00  1.8158E-01   9.7275E+00  0.000E+00  0.000E+00  0.000E+00  1.07154E+03  6.315E-01  1.000E+01  5.000E-02  1.211E+00
   1    6    8     4     3    9.7275E+00  1.2689E-01   9.6006E+00  0.000E+00  0.000E+00  0.000E+00  1.06381E+03  6.256E-01  1.000E+01  3.500E-02  1.209E+00
   1    6    8     5     1    1.0432E+01  2.2686E-01   1.0205E+01  0.000E+00  0.000E+00  0.000E+00  1.05868E+03  6.790E-01  1.542E+01  6.166E-02  1.226E+00
   1    7    7     5     2    1.0205E+01  2.7894E-01   9.9265E+00  0.000E+00  0.000E+00  0.000E+00  1.05417E+03  6.732E-01  1.519E+01  7.594E-02  1.224E+00
   1    8    7     5     3    9.9265E+00  1.9221E-01   9.7343E+00  0.000E+00  0.000E+00  0.000E+00  1.04992E+03  6.676E-01  1.497E+01  5.241E-02  1.223E+00
   1    8    6     5     4    9.7343E+00  1.3577E-01   9.5985E+00  0.000E+00  0.000E+00  0.000E+00  1.04691E+03  6.637E-01  1.482E+01  3.706E-02  1.221E+00
   1    9    6     6     1    3.9454E+01  2.7613E-01   3.9178E+01  0.000E+00  0.000E+00  0.000E+00  1.04433E+03  1.602E+00  1.200E+01  6.000E-02  1.534E+00
   1   10    7     6     2    3.9178E+01  2.7573E-01   3.8902E+01  0.000E+00  0.000E+00  0.000E+00  1.03978E+03  1.595E+00  1.200E+01  6.000E-02  1.532E+00
   1   11    7     6     3    3.8902E+01  2.7532E-01   3.8627E+01  0.000E+00  0.000E+00  0.000E+00  1.03522E+03  1.589E+00  1.200E+01  6.000E-02  1.530E+00
   1   12    7     6     4    3.8627E+01  2.7491E-01   3.8352E+01  0.000E+00  0.000E+00  0.000E+00  1.03067E+03  1.582E+00  1.200E+01  6.000E-02  1.527E+00
   1   13    7     6     5    3.8352E+01  7.7702E-03   3.8344E+01  0.000E+00  0.000E+00  0.000E+00  1.02749E+03  1.578E+00  1.200E+01  2.400E-02  1.079E-01
   1   14    9     7     1    1.5000E+02  1.3359E+00   1.4866E+02  0.000E+00  0.000E+00  0.000E+00  1.03987E+03  2.288E+00  5.529E+01  5.593E-01  7.962E-01
   1   13    8     7     2    1.4866E+02  1.8183E+00   1.4685E+02  0.000E+00  0.000E+00  0.000E+00  1.03478E+03  2.279E+00  5.526E+01  6.148E-01  9.859E-01
   1   13    7     7     3    1.4685E+02  1.4109E+00   1.4543E+02  0.000E+00  0.000E+00  0.000E+00  1.02969E+03  2.271E+00  5.522E+01  5.585E-01  8.421E-01
   1   13    6     8     1    1.8378E+02  9.0531E-01   1.8287E+02  0.000E+00  0.000E+00  0.000E+00  1.02491E+03  3.037E+00  4.404E+01  4.487E-01  6.725E-01
   1   13    5     8     2    1.8287E+02  1.3481E-01   1.8274E+02  0.000E+00  0.000E+00  0.000E+00  1.01866E+03  3.034E+00  4.399E+01  4.483E-01  1.002E-01
   1   13    4     8     3    1.8274E+02 -2.6410E+00   1.8538E+02  0.000E+00  0.000E+00  0.000E+00  1.01242E+03  3.041E+00  4.410E+01  4.494E+00 -1.959E-01
   1   13    3     8     4    1.8538E+02 -3.7319E+00   1.8911E+02  0.000E+00  0.000E+00  0.000E+00  1.00619E+03  3.061E+00  4.439E+01  4.523E+00 -2.750E-01
   1   13    2     8     5    1.8911E+02 -2.6908E+00   1.9180E+02  0.000E+00  0.000E+00  0.000E+00  9.99956E+02  3.081E+00  4.467E+01  4.552E+00 -1.970E-01
   1   13    1     8     6    1.9180E+02 -2.0701E+00   1.9387E+02  0.000E+00  0.000E+00  0.000E+00  9.94970E+02  3.095E+00  4.488E+01  2.744E+00 -2.515E-01
   1    8    6     9     1    2.2441E+01  0.0000E+00   2.2441E+01  0.000E+00  0.000E+00  0.000E+00  1.08243E+03  3.680E+00  4.000E+00  0.000E+00  2.227E+00
   1    8    5     9     2    2.2441E+01  0.0000E+00   2.2441E+01  0.000E+00  0.000E+00  0.000E+00  1.08193E+03  3.680E+00  4.000E+00  0.000E+00  2.227E+00





UNSATURATED ZONE PACKAGE VOLUMETRIC BUDGET FOR  TIME STEP    30 STRESS PERIOD    7
  ------------------------------------------------------------------------------



     CUMULATIVE VOLUMES      L**3       RATES FOR THIS TIME STEP      L**3/T
     ------------------                 ------------------------

           IN:                                      IN:
           ---                                      ---
        INFILTRATION =   139908420.8368          INFILTRATION =          23.2891

          OUT:                                     OUT:
          ----                                     ----
              UZF ET =   101811480.1258                UZF ET =          23.3175
        UZF RECHARGE =       73224.0000          UZF RECHARGE =       0.0000E+00

            IN - OUT =    38023716.7110              IN - OUT =      -2.8437E-02

          STORAGE:                                 STORAGE:
          --------                                 --------
      STORAGE CHANGE =    38039325.7489        STORAGE CHANGE =      -2.8438E-02

 PERCENT DISCREPANCY IS DIFFERENCE BETWEEN IN-OUT MINUS CHANGE IN STORAGE
 DIVIDED BY THE AVERAGE OF IN AND OUT TIMES 100

 PERCENT DISCREPANCY =          -0.00     PERCENT DISCREPANCY =           0.00






1
  VOLUMETRIC BUDGET FOR AGRICULTURAL FIELDS AT  END OF TIME STEP   30, STRESS PERIOD   7
  ------------------------------------------------------------------------------

     CUMULATIVE VOLUMES      L**3       RATES FOR THIS TIME STEP      L**3/T
     ------------------                 ------------------------

           IN:                                      IN:
           ---                                      ---
           AG WELLS      =    39642660.0000             AG WELLS      =           0.0000
      DIVERSION SEGMENTS =    86820816.0000        DIVERSION SEGMENTS =          22.4411
           GW IRRIGATION =           0.0000             GW IRRIGATION =           0.0000
           SW IRRIGATION =           0.0000             SW IRRIGATION =           0.0000
        SYSTEM LOSSES GW =           0.0000          SYSTEM LOSSES GW =           0.0000
        SYSTEM LOSSES SW =           0.0000          SYSTEM LOSSES SW =           0.0000

                TOTAL IN =   126463472.0000                  TOTAL IN =          22.4411

          OUT:                                     OUT:
          ----                                     ----
           AG WELLS      =           0.0000             AG WELLS      =           0.0000
      DIVERSION SEGMENTS =           0.0000        DIVERSION SEGMENTS =           0.0000
           GW IRRIGATION =    39642660.0000             GW IRRIGATION =           0.0000
           SW IRRIGATION =    86822552.0000             SW IRRIGATION =          22.4416
        SYSTEM LOSSES GW =           0.0000          SYSTEM LOSSES GW =           0.0000
        SYSTEM LOSSES SW =           0.0000          SYSTEM LOSSES SW =           0.0000

               TOTAL OUT =   126465216.0000                 TOTAL OUT =          22.4416

                IN - OUT =       -1744.0000                  IN - OUT =      -4.4823E-04

     PERCENT DISCREPANCY =          -0.00         PERCENT DISCREPANCY =          -0.00



1
  VOLUMETRIC BUDGET FOR ENTIRE MODEL AT END OF TIME STEP   30, STRESS PERIOD   7
  ------------------------------------------------------------------------------

     CUMULATIVE VOLUMES      L**3       RATES FOR THIS TIME STEP      L**3/T
     ------------------                 ------------------------

           IN:                                      IN:
           ---                                      ---
             STORAGE     =    71208080.0000               STORAGE     =           1.4698
       CONSTANT HEAD     =           0.0000         CONSTANT HEAD     =           0.0000
     HEAD DEP BOUNDS     =     4533349.0000       HEAD DEP BOUNDS     =           0.2858
      STREAM LEAKAGE     =   194434768.0000        STREAM LEAKAGE     =          12.5242
        UZF RECHARGE     =       73223.9531          UZF RECHARGE     =           0.0000
               GW ET     =           0.0000                 GW ET     =           0.0000
     SURFACE LEAKAGE     =           0.0000       SURFACE LEAKAGE     =           0.0000
           AG WELLS      =           0.0000             AG WELLS      =           0.0000

                TOTAL IN =   270249408.0000                  TOTAL IN =          14.2798

          OUT:                                     OUT:
          ----                                     ----
             STORAGE     =    57263072.0000               STORAGE     =           2.7371
       CONSTANT HEAD     =           0.0000         CONSTANT HEAD     =           0.0000
     HEAD DEP BOUNDS     =     4632985.0000       HEAD DEP BOUNDS     =           0.2935
      STREAM LEAKAGE     =   167182544.0000        STREAM LEAKAGE     =          11.1339
        UZF RECHARGE     =           0.0000          UZF RECHARGE     =           0.0000
               GW ET     =     1531351.6250                 GW ET     =           0.1151
     SURFACE LEAKAGE     =           0.0000       SURFACE LEAKAGE     =           0.0000
           AG WELLS      =    39642660.0000             AG WELLS      =           0.0000

               TOTAL OUT =   270252608.0000                 TOTAL OUT =          14.2796

                IN - OUT =       -3200.0000                  IN - OUT =       1.8787E-04

     PERCENT DISCREPANCY =          -0.00         PERCENT DISCREPANCY =           0.00






         TIME SUMMARY AT END OF TIME STEP   30 IN STRESS PERIOD    7
                    SECONDS     MINUTES      HOURS       DAYS        YEARS
                    -----------------------------------------------------------
   TIME STEP LENGTH  87667.      1461.1      24.352      1.0147     2.77799E-03
 STRESS PERIOD TIME 2.63000E+06  43833.      730.56      30.440     8.33397E-02
         TOTAL TIME 1.58664E+07 2.64440E+05  4407.3      183.64     0.50278    
1
1
                            STRESS PERIOD NO.    8, LENGTH =   2630000.    
                            -----------------------------------------------

                              NUMBER OF TIME STEPS =    30

                               MULTIPLIER FOR DELT =     1.000

                            INITIAL TIME STEP SIZE =   87666.66    

 REUSING NON-PARAMETER GHB CELLS FROM LAST STRESS PERIOD

      2 GHB CELLS

 REUSING STREAM SEGMENT DATA FROM LAST STRESS PERIOD



            AREAL INFILTRATION RATE
 READING ON UNIT   19 WITH FORMAT: (FREE)              

            1           2           3           4           5           6           7           8           9          10
 ........................................................................................................................
   1   1.0000E-10  2.0000E-10   0.000       0.000       0.000       0.000       0.000       0.000       0.000       0.000    
   2   2.0000E-10  1.0000E-10  2.0000E-10   0.000       0.000      8.0000E-10  8.0000E-10  5.0000E-10   0.000       0.000    
   3    0.000      5.0000E-10  1.0000E-10  1.0000E-10  8.0000E-10  8.0000E-10  5.0000E-10  5.0000E-10   0.000       0.000    
   4   8.0000E-10  5.0000E-10  1.0000E-10  1.0000E-10  1.0000E-10  1.0000E-10  1.0000E-10  1.0000E-10  2.0000E-10   0.000    
   5   8.0000E-10  5.0000E-10  1.0000E-10  1.0000E-10  1.0000E-10  1.0000E-10  1.0000E-10  1.0000E-10  1.0000E-10  1.0000E-10
   6   8.0000E-10  5.0000E-10  5.0000E-10  2.0000E-10  2.0000E-10  1.0000E-10  1.0000E-10  1.0000E-10  1.0000E-10  5.0000E-10
   7   8.0000E-10  5.0000E-10  5.0000E-10  2.0000E-10  2.0000E-10  1.0000E-10  1.0000E-10  2.0000E-10  2.0000E-10   0.000    
   8    0.000      5.0000E-10  5.0000E-10  2.0000E-10  2.0000E-10  1.0000E-10  1.0000E-10  2.0000E-10  5.0000E-10   0.000    
   9    0.000      5.0000E-10  5.0000E-10  2.0000E-10  2.0000E-10  1.0000E-10  1.0000E-10  2.0000E-10  5.0000E-10   0.000    
  10    0.000      5.0000E-10  5.0000E-10  2.0000E-10  2.0000E-10  1.0000E-10  1.0000E-10  2.0000E-10  5.0000E-10  8.0000E-10
  11    0.000      1.0000E-10  1.0000E-10  1.0000E-10  1.0000E-10  1.0000E-10  1.0000E-10  2.0000E-10  5.0000E-10   0.000    
  12   1.0000E-10  1.0000E-10  1.0000E-10  1.0000E-10  1.0000E-10  1.0000E-10  1.0000E-10  1.0000E-10  2.0000E-10   0.000    
  13   1.0000E-10  1.0000E-10  2.0000E-10  2.0000E-10  2.0000E-10  2.0000E-10  2.0000E-10  1.0000E-10  1.0000E-10   0.000    
  14    0.000      2.0000E-10  5.0000E-10  5.0000E-10  5.0000E-10  5.0000E-10  5.0000E-10  2.0000E-10  1.0000E-10   0.000    
  15    0.000       0.000      8.0000E-10  8.0000E-10  8.0000E-10  8.0000E-10   0.000       0.000       0.000       0.000    

                  ET RATE =  4.000000E-07

 USING ET EXTINCTION DEPTH FROM PREVIOUS STRESS PERIOD. CURRENT PERIOD IS:       8

 USING EXTINCTION WATER CONTENT FROM PREVIOUS STRESS PERIOD. CURRENT PERIOD IS:       8

 USING AIR ENTRY PRESSURE FROM PREVIOUS STRESS PERIOD. CURRENT PERIOD IS:       8

 USING ROOT PRESSURE HEAD FROM PREVIOUS STRESS PERIOD. CURRENT PERIOD IS:       8

 USING ROOT ACTIVITY FROM PREVIOUS STRESS PERIOD. CURRENT PERIOD IS:       8

 PROCESSING AG STRESS PERIOD DATA

 READING AG STRESS PERIOD DATA

 READING IRRIGATION SEGMENT

 READING IRRIGATION WELL

 READING SUPPLEMENTAL WELL

 END PROCESSING AG STRESS PERIOD DATA OPTIONS
 
 SOLVING FOR HEAD 
                                                   Max.-Head-Change                         Max.-Flux-Residual
  Residual-Control   Outer-Iter.   Inner-Iter.     Column Row Layer    Maximum-Head-Change  Column Row Layer    Maximum-Flux-Residual          L2-NORM 
          0                 1           2             2   13     1      -0.1302634760E-01       3   13    1        -0.7719649082E+00      0.1559236975E+01
          0                 2           2             4    7     1      -0.1284369652E+00       4    7    1        -0.6894433981E+01      0.1687342637E+02
          0                 3           2             4    7     1       0.8745278047E-02       4    7    1         0.4825968580E+00      0.1179857471E+01
          0                 4           2             4    7     1      -0.3479832939E-03       4    7    1        -0.1973751997E-01      0.4826246487E-01
          0                 5           1             4    7     1       0.4290784294E-05       4    7    1         0.2500843782E-03      0.6129114388E-03

    ------------------------------------------------
       NWT REQUIRED            5 OUTER ITERATIONS 
       AND A TOTAL OF          9 INNER ITERATIONS.
    ------------------------------------------------

 OUTPUT CONTROL FOR STRESS PERIOD    8   TIME STEP    1
    PRINT BUDGET
    SAVE BUDGET
 UBDSV1 SAVING "         STORAGE" ON UNIT 102 AT TIME STEP  1, STRESS PERIOD   8
 UBDSV2 SAVING "   CONSTANT HEAD" ON UNIT 102 AT TIME STEP  1, STRESS PERIOD   8
 UBDSV1 SAVING "FLOW RIGHT FACE " ON UNIT 102 AT TIME STEP  1, STRESS PERIOD   8
 UBDSV1 SAVING "FLOW FRONT FACE " ON UNIT 102 AT TIME STEP  1, STRESS PERIOD   8

  HEAD DEP BOUNDS   PERIOD    8   STEP     1
 BOUNDARY      1   LAYER   1   ROW    13   COL     1   RATE   -0.293253    
 BOUNDARY      2   LAYER   1   ROW    14   COL     9   RATE    0.285764    



 STREAM LISTING     PERIOD      8   STEP        1

 LAYER ROW COL. STREAM  RCH.  FLOW INTO     FLOW TO   FLOW OUT OF   OVRLND.     DIRECT     STREAM       STREAM     STREAM     STREAM   STREAMBED  STREAMBED
                SEG.NO.  NO.  STRM. RCH.    AQUIFER    STRM. RCH.    RUNOFF     PRECIP       ET          HEAD       DEPTH      WIDTH   CONDCTNC.   GRADIENT

   1    1    1     1     1    5.6250E+01  3.5875E-01   5.5891E+01  0.000E+00  0.000E+00  0.000E+00  1.09453E+03  1.479E+00  1.780E+01  8.010E-02  1.493E+00
   1    2    2     1     2    5.5891E+01  5.5550E-01   5.5336E+01  0.000E+00  0.000E+00  0.000E+00  1.08953E+03  1.473E+00  1.774E+01  1.242E-01  1.491E+00
   1    3    3     1     3    5.5336E+01  4.7368E-01   5.4862E+01  0.000E+00  0.000E+00  0.000E+00  1.08389E+03  1.467E+00  1.767E+01  1.060E-01  1.489E+00
   1    3    4     1     4    5.4862E+01  4.3613E-01   5.4426E+01  0.000E+00  0.000E+00  0.000E+00  1.07887E+03  1.461E+00  1.762E+01  9.777E-02  1.487E+00
   1    4    5     2     1    5.2426E+01  3.8056E-01   5.2046E+01  0.000E+00  0.000E+00  0.000E+00  1.07381E+03  1.879E+00  1.200E+01  7.800E-02  1.626E+00
   1    5    6     2     2    5.2046E+01  2.9230E-01   5.1753E+01  0.000E+00  0.000E+00  0.000E+00  1.06838E+03  1.872E+00  1.200E+01  6.000E-02  1.624E+00
   1    6    6     2     3    5.1753E+01  2.9192E-01   5.1461E+01  0.000E+00  0.000E+00  0.000E+00  1.06366E+03  1.865E+00  1.200E+01  6.000E-02  1.622E+00
   1    7    6     2     4    5.1461E+01  2.9154E-01   5.1170E+01  0.000E+00  0.000E+00  0.000E+00  1.05893E+03  1.859E+00  1.200E+01  6.000E-02  1.620E+00
   1    8    6     2     5    5.1170E+01  2.9116E-01   5.0879E+01  0.000E+00  0.000E+00  0.000E+00  1.05421E+03  1.853E+00  1.200E+01  6.000E-02  1.618E+00
   1    3    5     3     1    2.0000E+00  2.8252E-01   1.7175E+00  0.000E+00  0.000E+00  0.000E+00  1.07555E+03  1.909E+00  9.636E+00  7.227E-02  1.955E+00
   1    3    6     3     2    1.7175E+00  2.4905E-01   1.4684E+00  0.000E+00  0.000E+00  0.000E+00  1.07264E+03  1.727E+00  8.909E+00  6.682E-02  1.864E+00
   1    3    7     3     3    1.4684E+00  1.9718E-01   1.2712E+00  0.000E+00  0.000E+00  0.000E+00  1.06987E+03  1.555E+00  8.218E+00  5.547E-02  1.777E+00
   1    4    8     3     4    1.2712E+00  2.2567E-01   1.0456E+00  0.000E+00  0.000E+00  0.000E+00  1.06682E+03  1.364E+00  7.455E+00  6.709E-02  1.682E+00
   1    5    8     3     5    1.0456E+00  1.5790E-01   8.8768E-01  0.000E+00  0.000E+00  0.000E+00  1.06362E+03  1.164E+00  6.655E+00  4.991E-02  1.582E+00
   1    6    8     3     6    8.8768E-01  5.5980E-02   8.3170E-01  0.000E+00  0.000E+00  0.000E+00  1.06158E+03  1.036E+00  6.145E+00  1.844E-02  1.518E+00
   1    5   10     4     1    1.0000E+01  9.0919E-02   9.9091E+00  0.000E+00  0.000E+00  0.000E+00  1.07836E+03  6.368E-01  1.000E+01  2.500E-02  1.212E+00
   1    5    9     4     2    9.9091E+00  1.8158E-01   9.7275E+00  0.000E+00  0.000E+00  0.000E+00  1.07154E+03  6.315E-01  1.000E+01  5.000E-02  1.211E+00
   1    6    8     4     3    9.7275E+00  1.2689E-01   9.6006E+00  0.000E+00  0.000E+00  0.000E+00  1.06381E+03  6.256E-01  1.000E+01  3.500E-02  1.209E+00
   1    6    8     5     1    1.0432E+01  2.2686E-01   1.0205E+01  0.000E+00  0.000E+00  0.000E+00  1.05868E+03  6.790E-01  1.542E+01  6.166E-02  1.226E+00
   1    7    7     5     2    1.0205E+01  2.7894E-01   9.9265E+00  0.000E+00  0.000E+00  0.000E+00  1.05417E+03  6.732E-01  1.519E+01  7.594E-02  1.224E+00
   1    8    7     5     3    9.9265E+00  1.9221E-01   9.7343E+00  0.000E+00  0.000E+00  0.000E+00  1.04992E+03  6.676E-01  1.497E+01  5.241E-02  1.223E+00
   1    8    6     5     4    9.7343E+00  1.3577E-01   9.5985E+00  0.000E+00  0.000E+00  0.000E+00  1.04691E+03  6.637E-01  1.482E+01  3.706E-02  1.221E+00
   1    9    6     6     1    9.5985E+00  2.2097E-01   9.3776E+00  0.000E+00  0.000E+00  0.000E+00  1.04341E+03  6.828E-01  1.200E+01  6.000E-02  1.228E+00
   1   10    7     6     2    9.3776E+00  2.2039E-01   9.1572E+00  0.000E+00  0.000E+00  0.000E+00  1.03885E+03  6.732E-01  1.200E+01  6.000E-02  1.224E+00
   1   11    7     6     3    9.1572E+00  2.1981E-01   8.9374E+00  0.000E+00  0.000E+00  0.000E+00  1.03430E+03  6.636E-01  1.200E+01  6.000E-02  1.221E+00
   1   12    7     6     4    8.9374E+00  2.1923E-01   8.7181E+00  0.000E+00  0.000E+00  0.000E+00  1.02974E+03  6.539E-01  1.200E+01  6.000E-02  1.218E+00
   1   13    7     6     5    8.7181E+00 -1.4400E-01   8.8621E+00  0.000E+00  0.000E+00  0.000E+00  1.02656E+03  6.522E-01  1.200E+01  2.400E-01 -2.000E-01
   1   14    9     7     1    1.5000E+02  1.3359E+00   1.4866E+02  0.000E+00  0.000E+00  0.000E+00  1.03987E+03  2.288E+00  5.529E+01  5.593E-01  7.962E-01
   1   13    8     7     2    1.4866E+02  1.8182E+00   1.4685E+02  0.000E+00  0.000E+00  0.000E+00  1.03478E+03  2.279E+00  5.526E+01  6.148E-01  9.858E-01
   1   13    7     7     3    1.4685E+02  1.4122E+00   1.4543E+02  0.000E+00  0.000E+00  0.000E+00  1.02969E+03  2.271E+00  5.522E+01  5.585E-01  8.429E-01
   1   13    6     8     1    1.5430E+02  7.6801E-01   1.5353E+02  0.000E+00  0.000E+00  0.000E+00  1.02472E+03  2.844E+00  4.124E+01  4.203E-01  6.092E-01
   1   13    5     8     2    1.5353E+02  4.6390E-02   1.5348E+02  0.000E+00  0.000E+00  0.000E+00  1.01847E+03  2.841E+00  4.120E+01  4.198E-01  3.683E-02
   1   13    4     8     3    1.5348E+02 -3.2281E+00   1.5671E+02  0.000E+00  0.000E+00  0.000E+00  1.01223E+03  2.852E+00  4.136E+01  4.215E+00 -2.553E-01
   1   13    3     8     4    1.5671E+02 -4.2476E+00   1.6096E+02  0.000E+00  0.000E+00  0.000E+00  1.00600E+03  2.878E+00  4.173E+01  4.252E+00 -3.330E-01
   1   13    2     8     5    1.6096E+02 -3.2465E+00   1.6420E+02  0.000E+00  0.000E+00  0.000E+00  9.99778E+02  2.903E+00  4.210E+01  4.290E+00 -2.523E-01
   1   13    1     8     6    1.6420E+02 -2.3838E+00   1.6659E+02  0.000E+00  0.000E+00  0.000E+00  9.94797E+02  2.922E+00  4.237E+01  2.590E+00 -3.067E-01
   1    8    6     9     1    5.0879E+01  0.0000E+00   5.0879E+01  0.000E+00  0.000E+00  0.000E+00  1.08476E+03  6.014E+00  4.000E+00  0.000E+00  3.005E+00
   1    8    5     9     2    5.0879E+01  0.0000E+00   5.0879E+01  0.000E+00  0.000E+00  0.000E+00  1.08426E+03  6.014E+00  4.000E+00  0.000E+00  3.005E+00



 UBDSV3 SAVING "           GW ET" ON UNIT  61 AT TIME STEP  1, STRESS PERIOD   8
 UBDSV3 SAVING "    UZF RECHARGE" ON UNIT  61 AT TIME STEP  1, STRESS PERIOD   8
 UBDSV3 SAVING " SURFACE LEAKAGE" ON UNIT  61 AT TIME STEP  1, STRESS PERIOD   8
 UBDSV3 SAVING "       HORT+DUNN" ON UNIT  61 AT TIME STEP  1, STRESS PERIOD   8
 UBDSV3 SAVING "  STORAGE CHANGE" ON UNIT  61 AT TIME STEP  1, STRESS PERIOD   8


UNSATURATED ZONE PACKAGE VOLUMETRIC BUDGET FOR  TIME STEP     1 STRESS PERIOD    8
  ------------------------------------------------------------------------------



     CUMULATIVE VOLUMES      L**3       RATES FOR THIS TIME STEP      L**3/T
     ------------------                 ------------------------

           IN:                                      IN:
           ---                                      ---
        INFILTRATION =   148055288.0827          INFILTRATION =          92.9300

          OUT:                                     OUT:
          ----                                     ----
              UZF ET =   107143147.3717                UZF ET =          60.8175
        UZF RECHARGE =       73224.0000          UZF RECHARGE =       0.0000E+00

            IN - OUT =    40838916.7110              IN - OUT =          32.1125

          STORAGE:                                 STORAGE:
          --------                                 --------
      STORAGE CHANGE =    40854525.7376        STORAGE CHANGE =          32.1125

 PERCENT DISCREPANCY IS DIFFERENCE BETWEEN IN-OUT MINUS CHANGE IN STORAGE
 DIVIDED BY THE AVERAGE OF IN AND OUT TIMES 100

 PERCENT DISCREPANCY =          -0.00     PERCENT DISCREPANCY =           0.00






 

        AG WELLS          PERIOD    8   STEP   1
 AG WELL      1   LAYER   1   ROW     6   COL     4   RATE    -6.86715    
 AG WELL      2   LAYER   1   ROW     6   COL     5   RATE    -6.86715    
 AG WELL      3   LAYER   1   ROW     7   COL     4   RATE    -6.86715    
 AG WELL      4   LAYER   1   ROW     7   COL     5   RATE    -6.86715    
 AG WELL      5   LAYER   1   ROW     8   COL     4   RATE    -6.86715    
 AG WELL      6   LAYER   1   ROW     8   COL     5   RATE    -6.86715    
 
 

   DIVERSION SEGMENTS     PERIOD    8   STEP   1
 SEGMENT      9   RATE     50.8787    
 
 

        SW IRRIGATION     PERIOD    8   STEP   1
 SEGMENT      9   ROW     6   COL     4   RATE     8.47995    
 SEGMENT      9   ROW     6   COL     5   RATE     8.47995    
 SEGMENT      9   ROW     7   COL     4   RATE     8.47995    
 SEGMENT      9   ROW     7   COL     5   RATE     8.47995    
 SEGMENT      9   ROW     8   COL     4   RATE     8.47995    
 SEGMENT      9   ROW     8   COL     5   RATE     8.47995    
 
 

        GW IRRIGATION     PERIOD    8   STEP   1
 AG WELL      1   ROW     6   COL     4   RATE     6.86715    
 AG WELL      2   ROW     6   COL     5   RATE     6.86715    
 AG WELL      3   ROW     7   COL     4   RATE     6.86715    
 AG WELL      4   ROW     7   COL     5   RATE     6.86715    
 AG WELL      5   ROW     8   COL     4   RATE     6.86715    
 AG WELL      6   ROW     8   COL     5   RATE     6.86715    
 
1
  VOLUMETRIC BUDGET FOR AGRICULTURAL FIELDS AT  END OF TIME STEP    1, STRESS PERIOD   8
  ------------------------------------------------------------------------------

     CUMULATIVE VOLUMES      L**3       RATES FOR THIS TIME STEP      L**3/T
     ------------------                 ------------------------

           IN:                                      IN:
           ---                                      ---
           AG WELLS      =    43254780.0000             AG WELLS      =          41.2029
      DIVERSION SEGMENTS =    91281176.0000        DIVERSION SEGMENTS =          50.8787
           GW IRRIGATION =           0.0000             GW IRRIGATION =           0.0000
           SW IRRIGATION =           0.0000             SW IRRIGATION =           0.0000
        SYSTEM LOSSES GW =           0.0000          SYSTEM LOSSES GW =           0.0000
        SYSTEM LOSSES SW =           0.0000          SYSTEM LOSSES SW =           0.0000

                TOTAL IN =   134535952.0000                  TOTAL IN =          92.0815

          OUT:                                     OUT:
          ----                                     ----
           AG WELLS      =           0.0000             AG WELLS      =           0.0000
      DIVERSION SEGMENTS =           0.0000        DIVERSION SEGMENTS =           0.0000
           GW IRRIGATION =    43254780.0000             GW IRRIGATION =          41.2029
           SW IRRIGATION =    91283000.0000             SW IRRIGATION =          50.8797
        SYSTEM LOSSES GW =           0.0000          SYSTEM LOSSES GW =           0.0000
        SYSTEM LOSSES SW =           0.0000          SYSTEM LOSSES SW =           0.0000

               TOTAL OUT =   134537776.0000                 TOTAL OUT =          92.0825

                IN - OUT =       -1824.0000                  IN - OUT =      -1.0147E-03

     PERCENT DISCREPANCY =          -0.00         PERCENT DISCREPANCY =          -0.00



1
  VOLUMETRIC BUDGET FOR ENTIRE MODEL AT END OF TIME STEP    1, STRESS PERIOD   8
  ------------------------------------------------------------------------------

     CUMULATIVE VOLUMES      L**3       RATES FOR THIS TIME STEP      L**3/T
     ------------------                 ------------------------

           IN:                                      IN:
           ---                                      ---
             STORAGE     =    75022336.0000               STORAGE     =          43.5086
       CONSTANT HEAD     =           0.0000         CONSTANT HEAD     =           0.0000
     HEAD DEP BOUNDS     =     4558401.0000       HEAD DEP BOUNDS     =           0.2858
      STREAM LEAKAGE     =   195489760.0000        STREAM LEAKAGE     =          12.0342
        UZF RECHARGE     =       73223.9531          UZF RECHARGE     =           0.0000
               GW ET     =           0.0000                 GW ET     =           0.0000
     SURFACE LEAKAGE     =           0.0000       SURFACE LEAKAGE     =           0.0000
           AG WELLS      =           0.0000             AG WELLS      =           0.0000

                TOTAL IN =   275143712.0000                  TOTAL IN =          55.8286

          OUT:                                     OUT:
          ----                                     ----
             STORAGE     =    57354824.0000               STORAGE     =           1.0466
       CONSTANT HEAD     =           0.0000         CONSTANT HEAD     =           0.0000
     HEAD DEP BOUNDS     =     4658693.5000       HEAD DEP BOUNDS     =           0.2933
      STREAM LEAKAGE     =   168344128.0000        STREAM LEAKAGE     =          13.2500
        UZF RECHARGE     =           0.0000          UZF RECHARGE     =           0.0000
               GW ET     =     1534490.7500                 GW ET     =       3.5808E-02
     SURFACE LEAKAGE     =           0.0000       SURFACE LEAKAGE     =           0.0000
           AG WELLS      =    43254780.0000             AG WELLS      =          41.2029

               TOTAL OUT =   275146912.0000                 TOTAL OUT =          55.8285

                IN - OUT =       -3200.0000                  IN - OUT =       2.2888E-05

     PERCENT DISCREPANCY =          -0.00         PERCENT DISCREPANCY =           0.00






         TIME SUMMARY AT END OF TIME STEP    1 IN STRESS PERIOD    8
                    SECONDS     MINUTES      HOURS       DAYS        YEARS
                    -----------------------------------------------------------
   TIME STEP LENGTH  87667.      1461.1      24.352      1.0147     2.77799E-03
 STRESS PERIOD TIME  87667.      1461.1      24.352      1.0147     2.77799E-03
         TOTAL TIME 1.59541E+07 2.65901E+05  4431.7      184.65     0.50555    
1
 
 SOLVING FOR HEAD 
                                                   Max.-Head-Change                         Max.-Flux-Residual
  Residual-Control   Outer-Iter.   Inner-Iter.     Column Row Layer    Maximum-Head-Change  Column Row Layer    Maximum-Flux-Residual          L2-NORM 
          0                 1           2             4   13     1       0.8305959163E-02       4   13    1         0.4798987181E+00      0.1219984581E+01
          0                 2           2             7   13     1      -0.3432972087E-02       7   13    1        -0.1904295200E+00      0.2307696803E+00
          0                 3           2             4    7     1      -0.1036151198E+00       4    7    1        -0.5561711508E+01      0.1368269395E+02
          0                 4           2             4    7     1       0.3918891222E-01       5    6    1         0.2162369738E+01      0.5342475230E+01
          0                 5           2             4    7     1       0.5124427142E-01       4    7    1         0.2827483483E+01      0.6926019789E+01
          0                 6           2             4    7     1      -0.2072218407E-02       5    8    1        -0.1175645754E+00      0.2879526604E+00
          0                 7           1             4    7     1       0.2558984992E-04       5    8    1         0.1492606687E-02      0.3656055580E-02

    ------------------------------------------------
       NWT REQUIRED            7 OUTER ITERATIONS 
       AND A TOTAL OF         13 INNER ITERATIONS.
    ------------------------------------------------

 NO OUTPUT CONTROL FOR STRESS PERIOD    8   TIME STEP    2
 
 SOLVING FOR HEAD 
                                                   Max.-Head-Change                         Max.-Flux-Residual
  Residual-Control   Outer-Iter.   Inner-Iter.     Column Row Layer    Maximum-Head-Change  Column Row Layer    Maximum-Flux-Residual          L2-NORM 
          0                 1           2             4   13     1       0.9377389373E-02       4   13    1         0.5405836153E+00      0.1309419743E+01
          0                 2           2             7   13     1      -0.3449306862E-02       7   13    1        -0.1913328796E+00      0.2448234546E+00
          0                 3           2             4    7     1      -0.1858482892E+00       4    7    1        -0.9975707419E+01      0.2451060673E+02
          0                 4           2             4    7     1       0.1663071141E+00       5    6    1         0.9176427225E+01      0.2247867454E+02
          0                 5           2             4    7     1      -0.6651419228E-02       5    8    1        -0.3773966782E+00      0.9244172131E+00
          0                 6           1             4    7     1       0.8207549025E-04       5    8    1         0.4787601444E-02      0.1174068515E-01

    ------------------------------------------------
       NWT REQUIRED            6 OUTER ITERATIONS 
       AND A TOTAL OF         11 INNER ITERATIONS.
    ------------------------------------------------

 NO OUTPUT CONTROL FOR STRESS PERIOD    8   TIME STEP    3
 
 SOLVING FOR HEAD 
                                                   Max.-Head-Change                         Max.-Flux-Residual
  Residual-Control   Outer-Iter.   Inner-Iter.     Column Row Layer    Maximum-Head-Change  Column Row Layer    Maximum-Flux-Residual          L2-NORM 
          0                 1           2             4   13     1       0.1032455873E-01       4   13    1         0.5954290311E+00      0.1404231259E+01
          0                 2           2             7   13     1      -0.3465028374E-02       7   13    1        -0.1922028743E+00      0.2353332707E+00
          0                 3           2             4    7     1      -0.1858495362E+00       4    7    1        -0.9975775193E+01      0.2451110040E+02
          0                 4           2             4    7     1       0.1663072323E+00       5    6    1         0.9176420710E+01      0.2247820073E+02
          0                 5           2             4    7     1      -0.6651423939E-02       5    8    1        -0.3773964039E+00      0.9243518540E+00
          0                 6           1             4    7     1       0.8207554873E-04       5    8    1         0.4787597945E-02      0.1173197378E-01

    ------------------------------------------------
       NWT REQUIRED            6 OUTER ITERATIONS 
       AND A TOTAL OF         11 INNER ITERATIONS.
    ------------------------------------------------

 NO OUTPUT CONTROL FOR STRESS PERIOD    8   TIME STEP    4
 
 SOLVING FOR HEAD 
                                                   Max.-Head-Change                         Max.-Flux-Residual
  Residual-Control   Outer-Iter.   Inner-Iter.     Column Row Layer    Maximum-Head-Change  Column Row Layer    Maximum-Flux-Residual          L2-NORM 
          0                 1           2             4   13     1       0.1118139655E-01       4   13    1         0.6450257775E+00      0.1494624330E+01
          0                 2           2             7   13     1      -0.3480264319E-02       7   13    1        -0.1930460316E+00      0.2411654293E+00
          0                 3           2             4    7     1      -0.1858506975E+00       4    7    1        -0.9975837889E+01      0.2451144033E+02
          0                 4           2             4    7     1       0.1663073604E+00       5    6    1         0.9176415519E+01      0.2247819674E+02
          0                 5           2             4    7     1      -0.6651429048E-02       5    8    1        -0.3773961847E+00      0.9243514599E+00
          0                 6           1             4    7     1       0.8207561123E-04       5    8    1         0.4787595158E-02      0.1173193191E-01

    ------------------------------------------------
       NWT REQUIRED            6 OUTER ITERATIONS 
       AND A TOTAL OF         11 INNER ITERATIONS.
    ------------------------------------------------

 OUTPUT CONTROL FOR STRESS PERIOD    8   TIME STEP    5
    PRINT BUDGET
    SAVE BUDGET
 UBDSV1 SAVING "         STORAGE" ON UNIT 102 AT TIME STEP  5, STRESS PERIOD   8
 UBDSV2 SAVING "   CONSTANT HEAD" ON UNIT 102 AT TIME STEP  5, STRESS PERIOD   8
 UBDSV1 SAVING "FLOW RIGHT FACE " ON UNIT 102 AT TIME STEP  5, STRESS PERIOD   8
 UBDSV1 SAVING "FLOW FRONT FACE " ON UNIT 102 AT TIME STEP  5, STRESS PERIOD   8

  HEAD DEP BOUNDS   PERIOD    8   STEP     5
 BOUNDARY      1   LAYER   1   ROW    13   COL     1   RATE   -0.292244    
 BOUNDARY      2   LAYER   1   ROW    14   COL     9   RATE    0.285764    



 STREAM LISTING     PERIOD      8   STEP        5

 LAYER ROW COL. STREAM  RCH.  FLOW INTO     FLOW TO   FLOW OUT OF   OVRLND.     DIRECT     STREAM       STREAM     STREAM     STREAM   STREAMBED  STREAMBED
                SEG.NO.  NO.  STRM. RCH.    AQUIFER    STRM. RCH.    RUNOFF     PRECIP       ET          HEAD       DEPTH      WIDTH   CONDCTNC.   GRADIENT

   1    1    1     1     1    5.6250E+01  3.5875E-01   5.5891E+01  0.000E+00  0.000E+00  0.000E+00  1.09453E+03  1.479E+00  1.780E+01  8.010E-02  1.493E+00
   1    2    2     1     2    5.5891E+01  5.5550E-01   5.5336E+01  0.000E+00  0.000E+00  0.000E+00  1.08953E+03  1.473E+00  1.774E+01  1.242E-01  1.491E+00
   1    3    3     1     3    5.5336E+01  4.7368E-01   5.4862E+01  0.000E+00  0.000E+00  0.000E+00  1.08389E+03  1.467E+00  1.767E+01  1.060E-01  1.489E+00
   1    3    4     1     4    5.4862E+01  4.3613E-01   5.4426E+01  0.000E+00  0.000E+00  0.000E+00  1.07887E+03  1.461E+00  1.762E+01  9.777E-02  1.487E+00
   1    4    5     2     1    5.2426E+01  3.8056E-01   5.2046E+01  0.000E+00  0.000E+00  0.000E+00  1.07381E+03  1.879E+00  1.200E+01  7.800E-02  1.626E+00
   1    5    6     2     2    5.2046E+01  2.9230E-01   5.1753E+01  0.000E+00  0.000E+00  0.000E+00  1.06838E+03  1.872E+00  1.200E+01  6.000E-02  1.624E+00
   1    6    6     2     3    5.1753E+01  2.9192E-01   5.1461E+01  0.000E+00  0.000E+00  0.000E+00  1.06366E+03  1.865E+00  1.200E+01  6.000E-02  1.622E+00
   1    7    6     2     4    5.1461E+01  2.9154E-01   5.1170E+01  0.000E+00  0.000E+00  0.000E+00  1.05893E+03  1.859E+00  1.200E+01  6.000E-02  1.620E+00
   1    8    6     2     5    5.1170E+01  2.9116E-01   5.0879E+01  0.000E+00  0.000E+00  0.000E+00  1.05421E+03  1.853E+00  1.200E+01  6.000E-02  1.618E+00
   1    3    5     3     1    2.0000E+00  2.8252E-01   1.7175E+00  0.000E+00  0.000E+00  0.000E+00  1.07555E+03  1.909E+00  9.636E+00  7.227E-02  1.955E+00
   1    3    6     3     2    1.7175E+00  2.4905E-01   1.4684E+00  0.000E+00  0.000E+00  0.000E+00  1.07264E+03  1.727E+00  8.909E+00  6.682E-02  1.864E+00
   1    3    7     3     3    1.4684E+00  1.9718E-01   1.2712E+00  0.000E+00  0.000E+00  0.000E+00  1.06987E+03  1.555E+00  8.218E+00  5.547E-02  1.777E+00
   1    4    8     3     4    1.2712E+00  2.2567E-01   1.0456E+00  0.000E+00  0.000E+00  0.000E+00  1.06682E+03  1.364E+00  7.455E+00  6.709E-02  1.682E+00
   1    5    8     3     5    1.0456E+00  1.5790E-01   8.8768E-01  0.000E+00  0.000E+00  0.000E+00  1.06362E+03  1.164E+00  6.655E+00  4.991E-02  1.582E+00
   1    6    8     3     6    8.8768E-01  5.5980E-02   8.3170E-01  0.000E+00  0.000E+00  0.000E+00  1.06158E+03  1.036E+00  6.145E+00  1.844E-02  1.518E+00
   1    5   10     4     1    1.0000E+01  9.0919E-02   9.9091E+00  0.000E+00  0.000E+00  0.000E+00  1.07836E+03  6.368E-01  1.000E+01  2.500E-02  1.212E+00
   1    5    9     4     2    9.9091E+00  1.8158E-01   9.7275E+00  0.000E+00  0.000E+00  0.000E+00  1.07154E+03  6.315E-01  1.000E+01  5.000E-02  1.211E+00
   1    6    8     4     3    9.7275E+00  1.2689E-01   9.6006E+00  0.000E+00  0.000E+00  0.000E+00  1.06381E+03  6.256E-01  1.000E+01  3.500E-02  1.209E+00
   1    6    8     5     1    1.0432E+01  2.2686E-01   1.0205E+01  0.000E+00  0.000E+00  0.000E+00  1.05868E+03  6.790E-01  1.542E+01  6.166E-02  1.226E+00
   1    7    7     5     2    1.0205E+01  2.7894E-01   9.9265E+00  0.000E+00  0.000E+00  0.000E+00  1.05417E+03  6.732E-01  1.519E+01  7.594E-02  1.224E+00
   1    8    7     5     3    9.9265E+00  1.9221E-01   9.7343E+00  0.000E+00  0.000E+00  0.000E+00  1.04992E+03  6.676E-01  1.497E+01  5.241E-02  1.223E+00
   1    8    6     5     4    9.7343E+00  1.3577E-01   9.5985E+00  0.000E+00  0.000E+00  0.000E+00  1.04691E+03  6.637E-01  1.482E+01  3.706E-02  1.221E+00
   1    9    6     6     1    9.5985E+00  2.2097E-01   9.3776E+00  0.000E+00  0.000E+00  0.000E+00  1.04341E+03  6.828E-01  1.200E+01  6.000E-02  1.228E+00
   1   10    7     6     2    9.3776E+00  2.2039E-01   9.1572E+00  0.000E+00  0.000E+00  0.000E+00  1.03885E+03  6.732E-01  1.200E+01  6.000E-02  1.224E+00
   1   11    7     6     3    9.1572E+00  2.1981E-01   8.9374E+00  0.000E+00  0.000E+00  0.000E+00  1.03430E+03  6.636E-01  1.200E+01  6.000E-02  1.221E+00
   1   12    7     6     4    8.9374E+00  2.1923E-01   8.7181E+00  0.000E+00  0.000E+00  0.000E+00  1.02974E+03  6.539E-01  1.200E+01  6.000E-02  1.218E+00
   1   13    7     6     5    8.7181E+00 -1.4182E-01   8.8600E+00  0.000E+00  0.000E+00  0.000E+00  1.02656E+03  6.521E-01  1.200E+01  2.400E-01 -1.970E-01
   1   14    9     7     1    1.5000E+02  1.3359E+00   1.4866E+02  0.000E+00  0.000E+00  0.000E+00  1.03987E+03  2.288E+00  5.529E+01  5.593E-01  7.962E-01
   1   13    8     7     2    1.4866E+02  1.8180E+00   1.4685E+02  0.000E+00  0.000E+00  0.000E+00  1.03478E+03  2.279E+00  5.526E+01  6.148E-01  9.857E-01
   1   13    7     7     3    1.4685E+02  1.4173E+00   1.4543E+02  0.000E+00  0.000E+00  0.000E+00  1.02969E+03  2.271E+00  5.522E+01  5.585E-01  8.460E-01
   1   13    6     8     1    1.5429E+02  7.7244E-01   1.5352E+02  0.000E+00  0.000E+00  0.000E+00  1.02472E+03  2.844E+00  4.124E+01  4.202E-01  6.127E-01
   1   13    5     8     2    1.5352E+02  5.0083E-02   1.5347E+02  0.000E+00  0.000E+00  0.000E+00  1.01847E+03  2.841E+00  4.120E+01  4.198E-01  3.977E-02
   1   13    4     8     3    1.5347E+02 -3.0843E+00   1.5655E+02  0.000E+00  0.000E+00  0.000E+00  1.01223E+03  2.852E+00  4.135E+01  4.214E+00 -2.440E-01
   1   13    3     8     4    1.5655E+02 -4.1275E+00   1.6068E+02  0.000E+00  0.000E+00  0.000E+00  1.00600E+03  2.876E+00  4.171E+01  4.250E+00 -3.237E-01
   1   13    2     8     5    1.6068E+02 -3.0857E+00   1.6376E+02  0.000E+00  0.000E+00  0.000E+00  9.99776E+02  2.901E+00  4.206E+01  4.286E+00 -2.400E-01
   1   13    1     8     6    1.6376E+02 -2.3206E+00   1.6608E+02  0.000E+00  0.000E+00  0.000E+00  9.94794E+02  2.919E+00  4.232E+01  2.588E+00 -2.989E-01
   1    8    6     9     1    5.0879E+01  0.0000E+00   5.0879E+01  0.000E+00  0.000E+00  0.000E+00  1.08476E+03  6.014E+00  4.000E+00  0.000E+00  3.005E+00
   1    8    5     9     2    5.0879E+01  0.0000E+00   5.0879E+01  0.000E+00  0.000E+00  0.000E+00  1.08426E+03  6.014E+00  4.000E+00  0.000E+00  3.005E+00



 UBDSV3 SAVING "           GW ET" ON UNIT  61 AT TIME STEP  5, STRESS PERIOD   8
 UBDSV3 SAVING "    UZF RECHARGE" ON UNIT  61 AT TIME STEP  5, STRESS PERIOD   8
 UBDSV3 SAVING " SURFACE LEAKAGE" ON UNIT  61 AT TIME STEP  5, STRESS PERIOD   8
 UBDSV3 SAVING "       HORT+DUNN" ON UNIT  61 AT TIME STEP  5, STRESS PERIOD   8
 UBDSV3 SAVING "  STORAGE CHANGE" ON UNIT  61 AT TIME STEP  5, STRESS PERIOD   8


UNSATURATED ZONE PACKAGE VOLUMETRIC BUDGET FOR  TIME STEP     5 STRESS PERIOD    8
  ------------------------------------------------------------------------------



     CUMULATIVE VOLUMES      L**3       RATES FOR THIS TIME STEP      L**3/T
     ------------------                 ------------------------

           IN:                                      IN:
           ---                                      ---
        INFILTRATION =   169028429.1912          INFILTRATION =          60.7506

          OUT:                                     OUT:
          ----                                     ----
              UZF ET =   128469816.3552                UZF ET =          60.8175
        UZF RECHARGE =       73224.0000          UZF RECHARGE =       0.0000E+00

            IN - OUT =    40485388.8360              IN - OUT =      -6.6914E-02

          STORAGE:                                 STORAGE:
          --------                                 --------
      STORAGE CHANGE =    40500997.2833        STORAGE CHANGE =      -6.6912E-02

 PERCENT DISCREPANCY IS DIFFERENCE BETWEEN IN-OUT MINUS CHANGE IN STORAGE
 DIVIDED BY THE AVERAGE OF IN AND OUT TIMES 100

 PERCENT DISCREPANCY =          -0.00     PERCENT DISCREPANCY =          -0.00






 

        AG WELLS          PERIOD    8   STEP   5
 AG WELL      1   LAYER   1   ROW     6   COL     4   RATE    -1.50390    
 AG WELL      2   LAYER   1   ROW     6   COL     5   RATE    -1.50390    
 AG WELL      3   LAYER   1   ROW     7   COL     4   RATE    -1.50390    
 AG WELL      4   LAYER   1   ROW     7   COL     5   RATE    -1.50390    
 AG WELL      5   LAYER   1   ROW     8   COL     4   RATE    -1.50390    
 AG WELL      6   LAYER   1   ROW     8   COL     5   RATE    -1.50390    
 
 

   DIVERSION SEGMENTS     PERIOD    8   STEP   5
 SEGMENT      9   RATE     50.8787    
 
 

        SW IRRIGATION     PERIOD    8   STEP   5
 SEGMENT      9   ROW     6   COL     4   RATE     8.47995    
 SEGMENT      9   ROW     6   COL     5   RATE     8.47995    
 SEGMENT      9   ROW     7   COL     4   RATE     8.47995    
 SEGMENT      9   ROW     7   COL     5   RATE     8.47995    
 SEGMENT      9   ROW     8   COL     4   RATE     8.47995    
 SEGMENT      9   ROW     8   COL     5   RATE     8.47995    
 
 

        GW IRRIGATION     PERIOD    8   STEP   5
 AG WELL      1   ROW     6   COL     4   RATE     1.50390    
 AG WELL      2   ROW     6   COL     5   RATE     1.50390    
 AG WELL      3   ROW     7   COL     4   RATE     1.50390    
 AG WELL      4   ROW     7   COL     5   RATE     1.50390    
 AG WELL      5   ROW     8   COL     4   RATE     1.50390    
 AG WELL      6   ROW     8   COL     5   RATE     1.50390    
 
1
  VOLUMETRIC BUDGET FOR AGRICULTURAL FIELDS AT  END OF TIME STEP    5, STRESS PERIOD   8
  ------------------------------------------------------------------------------

     CUMULATIVE VOLUMES      L**3       RATES FOR THIS TIME STEP      L**3/T
     ------------------                 ------------------------

           IN:                                      IN:
           ---                                      ---
           AG WELLS      =    46088924.0000             AG WELLS      =           9.0234
      DIVERSION SEGMENTS =   109122616.0000        DIVERSION SEGMENTS =          50.8787
           GW IRRIGATION =           0.0000             GW IRRIGATION =           0.0000
           SW IRRIGATION =           0.0000             SW IRRIGATION =           0.0000
        SYSTEM LOSSES GW =           0.0000          SYSTEM LOSSES GW =           0.0000
        SYSTEM LOSSES SW =           0.0000          SYSTEM LOSSES SW =           0.0000

                TOTAL IN =   155211536.0000                  TOTAL IN =          59.9021

          OUT:                                     OUT:
          ----                                     ----
           AG WELLS      =           0.0000             AG WELLS      =           0.0000
      DIVERSION SEGMENTS =           0.0000        DIVERSION SEGMENTS =           0.0000
           GW IRRIGATION =    46088924.0000             GW IRRIGATION =           9.0234
           SW IRRIGATION =   109124792.0000             SW IRRIGATION =          50.8797
        SYSTEM LOSSES GW =           0.0000          SYSTEM LOSSES GW =           0.0000
        SYSTEM LOSSES SW =           0.0000          SYSTEM LOSSES SW =           0.0000

               TOTAL OUT =   155213712.0000                 TOTAL OUT =          59.9031

                IN - OUT =       -2176.0000                  IN - OUT =      -1.0147E-03

     PERCENT DISCREPANCY =          -0.00         PERCENT DISCREPANCY =          -0.00



1
  VOLUMETRIC BUDGET FOR ENTIRE MODEL AT END OF TIME STEP    5, STRESS PERIOD   8
  ------------------------------------------------------------------------------

     CUMULATIVE VOLUMES      L**3       RATES FOR THIS TIME STEP      L**3/T
     ------------------                 ------------------------

           IN:                                      IN:
           ---                                      ---
             STORAGE     =    78529992.0000               STORAGE     =          10.7558
       CONSTANT HEAD     =           0.0000         CONSTANT HEAD     =           0.0000
     HEAD DEP BOUNDS     =     4658609.0000       HEAD DEP BOUNDS     =           0.2858
      STREAM LEAKAGE     =   199712608.0000        STREAM LEAKAGE     =          12.0472
        UZF RECHARGE     =       73223.9531          UZF RECHARGE     =           0.0000
               GW ET     =           0.0000                 GW ET     =           0.0000
     SURFACE LEAKAGE     =           0.0000       SURFACE LEAKAGE     =           0.0000
           AG WELLS      =           0.0000             AG WELLS      =           0.0000

                TOTAL IN =   282974432.0000                  TOTAL IN =          23.0888

          OUT:                                     OUT:
          ----                                     ----
             STORAGE     =    57713800.0000               STORAGE     =           1.0128
       CONSTANT HEAD     =           0.0000         CONSTANT HEAD     =           0.0000
     HEAD DEP BOUNDS     =     4761302.0000       HEAD DEP BOUNDS     =           0.2922
      STREAM LEAKAGE     =   172878992.0000        STREAM LEAKAGE     =          12.7600
        UZF RECHARGE     =           0.0000          UZF RECHARGE     =           0.0000
               GW ET     =     1534490.7500                 GW ET     =           0.0000
     SURFACE LEAKAGE     =           0.0000       SURFACE LEAKAGE     =           0.0000
           AG WELLS      =    46088924.0000             AG WELLS      =           9.0234

               TOTAL OUT =   282977504.0000                 TOTAL OUT =          23.0884

                IN - OUT =       -3072.0000                  IN - OUT =       4.2152E-04

     PERCENT DISCREPANCY =          -0.00         PERCENT DISCREPANCY =           0.00






         TIME SUMMARY AT END OF TIME STEP    5 IN STRESS PERIOD    8
                    SECONDS     MINUTES      HOURS       DAYS        YEARS
                    -----------------------------------------------------------
   TIME STEP LENGTH  87667.      1461.1      24.352      1.0147     2.77799E-03
 STRESS PERIOD TIME 4.38333E+05  7305.6      121.76      5.0733     1.38899E-02
         TOTAL TIME 1.63048E+07 2.71746E+05  4529.1      188.71     0.51667    
1
 
 SOLVING FOR HEAD 
                                                   Max.-Head-Change                         Max.-Flux-Residual
  Residual-Control   Outer-Iter.   Inner-Iter.     Column Row Layer    Maximum-Head-Change  Column Row Layer    Maximum-Flux-Residual          L2-NORM 
          0                 1           2             4   13     1       0.1195668081E-01       4   13    1         0.6898852683E+00      0.1580453512E+01
          0                 2           2             7   13     1      -0.3495015460E-02       7   13    1        -0.1938623406E+00      0.2468927317E+00
          0                 3           2             4    7     1      -0.1858517587E+00       4    7    1        -0.9975894763E+01      0.2451175582E+02
          0                 4           2             4    7     1       0.1663074671E+00       5    6    1         0.9176409849E+01      0.2247819067E+02
          0                 5           2             4    7     1      -0.6651435408E-02       5    8    1        -0.3773960673E+00      0.9243512966E+00
          0                 6           1             4    7     1       0.8207568964E-04       5    8    1         0.4787593645E-02      0.1173189149E-01

    ------------------------------------------------
       NWT REQUIRED            6 OUTER ITERATIONS 
       AND A TOTAL OF         11 INNER ITERATIONS.
    ------------------------------------------------

 NO OUTPUT CONTROL FOR STRESS PERIOD    8   TIME STEP    6
 
 SOLVING FOR HEAD 
                                                   Max.-Head-Change                         Max.-Flux-Residual
  Residual-Control   Outer-Iter.   Inner-Iter.     Column Row Layer    Maximum-Head-Change  Column Row Layer    Maximum-Flux-Residual          L2-NORM 
          0                 1           2             4   13     1       0.1265865667E-01       4   13    1         0.7304876731E+00      0.1661730865E+01
          0                 2           2             7   13     1      -0.3509317961E-02       7   13    1        -0.1946538029E+00      0.2524789516E+00
          0                 3           2             4    7     1      -0.1858527638E+00       4    7    1        -0.9975948223E+01      0.2451205329E+02
          0                 4           2             4    7     1       0.1663075875E+00       5    6    1         0.9176405595E+01      0.2247818719E+02
          0                 5           2             4    7     1      -0.6651438107E-02       5    8    1        -0.3773957703E+00      0.9243506630E+00
          0                 6           1             4    7     1       0.8207572302E-04       5    8    1         0.4787589834E-02      0.1173185188E-01

    ------------------------------------------------
       NWT REQUIRED            6 OUTER ITERATIONS 
       AND A TOTAL OF         11 INNER ITERATIONS.
    ------------------------------------------------

 NO OUTPUT CONTROL FOR STRESS PERIOD    8   TIME STEP    7
 
 SOLVING FOR HEAD 
                                                   Max.-Head-Change                         Max.-Flux-Residual
  Residual-Control   Outer-Iter.   Inner-Iter.     Column Row Layer    Maximum-Head-Change  Column Row Layer    Maximum-Flux-Residual          L2-NORM 
          0                 1           2             4   13     1       0.1329436954E-01       4   13    1         0.7672432062E+00      0.1738600446E+01
          0                 2           2             7   13     1      -0.3523167224E-02       7   13    1        -0.1954201945E+00      0.2578992797E+00
          0                 3           2             4    7     1      -0.1858536781E+00       4    7    1        -0.9975996421E+01      0.2451232947E+02
          0                 4           2             4    7     1       0.1663076996E+00       5    6    1         0.9176401498E+01      0.2247818329E+02
          0                 5           2             4    7     1      -0.6651442581E-02       5    8    1        -0.3773956000E+00      0.9243503042E+00
          0                 6           1             4    7     1       0.8207577836E-04       5    8    1         0.4787587636E-02      0.1173180813E-01

    ------------------------------------------------
       NWT REQUIRED            6 OUTER ITERATIONS 
       AND A TOTAL OF         11 INNER ITERATIONS.
    ------------------------------------------------

 NO OUTPUT CONTROL FOR STRESS PERIOD    8   TIME STEP    8
 
 SOLVING FOR HEAD 
                                                   Max.-Head-Change                         Max.-Flux-Residual
  Residual-Control   Outer-Iter.   Inner-Iter.     Column Row Layer    Maximum-Head-Change  Column Row Layer    Maximum-Flux-Residual          L2-NORM 
          0                 1           2             4   13     1       0.1387044273E-01       4   13    1         0.8005373893E+00      0.1811210431E+01
          0                 2           2             7   13     1      -0.3536584233E-02       7   13    1        -0.1961626480E+00      0.2631378189E+00
          0                 3           2             4    7     1      -0.1858545433E+00       4    7    1        -0.9976041624E+01      0.2451259043E+02
          0                 4           2             4    7     1       0.1663078169E+00       5    6    1         0.9176398267E+01      0.2247818076E+02
          0                 5           2             4    7     1      -0.6651447258E-02       5    8    1        -0.3773954659E+00      0.9243499921E+00
          0                 6           1             4    7     1       0.8207583616E-04       5    8    1         0.4787585907E-02      0.1173177394E-01

    ------------------------------------------------
       NWT REQUIRED            6 OUTER ITERATIONS 
       AND A TOTAL OF         11 INNER ITERATIONS.
    ------------------------------------------------

 NO OUTPUT CONTROL FOR STRESS PERIOD    8   TIME STEP    9
 
 SOLVING FOR HEAD 
                                                   Max.-Head-Change                         Max.-Flux-Residual
  Residual-Control   Outer-Iter.   Inner-Iter.     Column Row Layer    Maximum-Head-Change  Column Row Layer    Maximum-Flux-Residual          L2-NORM 
          0                 1           2             4   13     1       0.1439262371E-01       4   13    1         0.8307047755E+00      0.1879818236E+01
          0                 2           2             7   13     1      -0.3549597862E-02       7   13    1        -0.1968827661E+00      0.2681879110E+00
          0                 3           2             4    7     1      -0.1858553276E+00       4    7    1        -0.9976082168E+01      0.2451283273E+02
          0                 4           2             4    7     1       0.1663079131E+00       5    6    1         0.9176394403E+01      0.2247817602E+02
          0                 5           2             4    7     1      -0.6651453202E-02       5    8    1        -0.3773954259E+00      0.9243499058E+00
          0                 6           1             4    7     1       0.8207590942E-04       5    8    1         0.4787585370E-02      0.1173173742E-01

    ------------------------------------------------
       NWT REQUIRED            6 OUTER ITERATIONS 
       AND A TOTAL OF         11 INNER ITERATIONS.
    ------------------------------------------------

 OUTPUT CONTROL FOR STRESS PERIOD    8   TIME STEP   10
    PRINT BUDGET
    SAVE BUDGET
 UBDSV1 SAVING "         STORAGE" ON UNIT 102 AT TIME STEP 10, STRESS PERIOD   8
 UBDSV2 SAVING "   CONSTANT HEAD" ON UNIT 102 AT TIME STEP 10, STRESS PERIOD   8
 UBDSV1 SAVING "FLOW RIGHT FACE " ON UNIT 102 AT TIME STEP 10, STRESS PERIOD   8
 UBDSV1 SAVING "FLOW FRONT FACE " ON UNIT 102 AT TIME STEP 10, STRESS PERIOD   8

  HEAD DEP BOUNDS   PERIOD    8   STEP    10
 BOUNDARY      1   LAYER   1   ROW    13   COL     1   RATE   -0.291192    
 BOUNDARY      2   LAYER   1   ROW    14   COL     9   RATE    0.285763    



 STREAM LISTING     PERIOD      8   STEP       10

 LAYER ROW COL. STREAM  RCH.  FLOW INTO     FLOW TO   FLOW OUT OF   OVRLND.     DIRECT     STREAM       STREAM     STREAM     STREAM   STREAMBED  STREAMBED
                SEG.NO.  NO.  STRM. RCH.    AQUIFER    STRM. RCH.    RUNOFF     PRECIP       ET          HEAD       DEPTH      WIDTH   CONDCTNC.   GRADIENT

   1    1    1     1     1    5.6250E+01  3.5875E-01   5.5891E+01  0.000E+00  0.000E+00  0.000E+00  1.09453E+03  1.479E+00  1.780E+01  8.010E-02  1.493E+00
   1    2    2     1     2    5.5891E+01  5.5550E-01   5.5336E+01  0.000E+00  0.000E+00  0.000E+00  1.08953E+03  1.473E+00  1.774E+01  1.242E-01  1.491E+00
   1    3    3     1     3    5.5336E+01  4.7368E-01   5.4862E+01  0.000E+00  0.000E+00  0.000E+00  1.08389E+03  1.467E+00  1.767E+01  1.060E-01  1.489E+00
   1    3    4     1     4    5.4862E+01  4.3613E-01   5.4426E+01  0.000E+00  0.000E+00  0.000E+00  1.07887E+03  1.461E+00  1.762E+01  9.777E-02  1.487E+00
   1    4    5     2     1    5.2426E+01  3.8056E-01   5.2046E+01  0.000E+00  0.000E+00  0.000E+00  1.07381E+03  1.879E+00  1.200E+01  7.800E-02  1.626E+00
   1    5    6     2     2    5.2046E+01  2.9230E-01   5.1753E+01  0.000E+00  0.000E+00  0.000E+00  1.06838E+03  1.872E+00  1.200E+01  6.000E-02  1.624E+00
   1    6    6     2     3    5.1753E+01  2.9192E-01   5.1461E+01  0.000E+00  0.000E+00  0.000E+00  1.06366E+03  1.865E+00  1.200E+01  6.000E-02  1.622E+00
   1    7    6     2     4    5.1461E+01  2.9154E-01   5.1170E+01  0.000E+00  0.000E+00  0.000E+00  1.05893E+03  1.859E+00  1.200E+01  6.000E-02  1.620E+00
   1    8    6     2     5    5.1170E+01  2.9116E-01   5.0879E+01  0.000E+00  0.000E+00  0.000E+00  1.05421E+03  1.853E+00  1.200E+01  6.000E-02  1.618E+00
   1    3    5     3     1    2.0000E+00  2.8252E-01   1.7175E+00  0.000E+00  0.000E+00  0.000E+00  1.07555E+03  1.909E+00  9.636E+00  7.227E-02  1.955E+00
   1    3    6     3     2    1.7175E+00  2.4905E-01   1.4684E+00  0.000E+00  0.000E+00  0.000E+00  1.07264E+03  1.727E+00  8.909E+00  6.682E-02  1.864E+00
   1    3    7     3     3    1.4684E+00  1.9718E-01   1.2712E+00  0.000E+00  0.000E+00  0.000E+00  1.06987E+03  1.555E+00  8.218E+00  5.547E-02  1.777E+00
   1    4    8     3     4    1.2712E+00  2.2567E-01   1.0456E+00  0.000E+00  0.000E+00  0.000E+00  1.06682E+03  1.364E+00  7.455E+00  6.709E-02  1.682E+00
   1    5    8     3     5    1.0456E+00  1.5790E-01   8.8768E-01  0.000E+00  0.000E+00  0.000E+00  1.06362E+03  1.164E+00  6.655E+00  4.991E-02  1.582E+00
   1    6    8     3     6    8.8768E-01  5.5980E-02   8.3170E-01  0.000E+00  0.000E+00  0.000E+00  1.06158E+03  1.036E+00  6.145E+00  1.844E-02  1.518E+00
   1    5   10     4     1    1.0000E+01  9.0919E-02   9.9091E+00  0.000E+00  0.000E+00  0.000E+00  1.07836E+03  6.368E-01  1.000E+01  2.500E-02  1.212E+00
   1    5    9     4     2    9.9091E+00  1.8158E-01   9.7275E+00  0.000E+00  0.000E+00  0.000E+00  1.07154E+03  6.315E-01  1.000E+01  5.000E-02  1.211E+00
   1    6    8     4     3    9.7275E+00  1.2689E-01   9.6006E+00  0.000E+00  0.000E+00  0.000E+00  1.06381E+03  6.256E-01  1.000E+01  3.500E-02  1.209E+00
   1    6    8     5     1    1.0432E+01  2.2686E-01   1.0205E+01  0.000E+00  0.000E+00  0.000E+00  1.05868E+03  6.790E-01  1.542E+01  6.166E-02  1.226E+00
   1    7    7     5     2    1.0205E+01  2.7894E-01   9.9265E+00  0.000E+00  0.000E+00  0.000E+00  1.05417E+03  6.732E-01  1.519E+01  7.594E-02  1.224E+00
   1    8    7     5     3    9.9265E+00  1.9221E-01   9.7343E+00  0.000E+00  0.000E+00  0.000E+00  1.04992E+03  6.676E-01  1.497E+01  5.241E-02  1.223E+00
   1    8    6     5     4    9.7343E+00  1.3577E-01   9.5985E+00  0.000E+00  0.000E+00  0.000E+00  1.04691E+03  6.637E-01  1.482E+01  3.706E-02  1.221E+00
   1    9    6     6     1    9.5985E+00  2.2097E-01   9.3776E+00  0.000E+00  0.000E+00  0.000E+00  1.04341E+03  6.828E-01  1.200E+01  6.000E-02  1.228E+00
   1   10    7     6     2    9.3776E+00  2.2039E-01   9.1572E+00  0.000E+00  0.000E+00  0.000E+00  1.03885E+03  6.732E-01  1.200E+01  6.000E-02  1.224E+00
   1   11    7     6     3    9.1572E+00  2.1981E-01   8.9374E+00  0.000E+00  0.000E+00  0.000E+00  1.03430E+03  6.636E-01  1.200E+01  6.000E-02  1.221E+00
   1   12    7     6     4    8.9374E+00  2.1923E-01   8.7181E+00  0.000E+00  0.000E+00  0.000E+00  1.02974E+03  6.539E-01  1.200E+01  6.000E-02  1.218E+00
   1   13    7     6     5    8.7181E+00 -1.3942E-01   8.8575E+00  0.000E+00  0.000E+00  0.000E+00  1.02656E+03  6.521E-01  1.200E+01  2.400E-01 -1.936E-01
   1   14    9     7     1    1.5000E+02  1.3359E+00   1.4866E+02  0.000E+00  0.000E+00  0.000E+00  1.03987E+03  2.288E+00  5.529E+01  5.593E-01  7.962E-01
   1   13    8     7     2    1.4866E+02  1.8181E+00   1.4685E+02  0.000E+00  0.000E+00  0.000E+00  1.03478E+03  2.279E+00  5.526E+01  6.148E-01  9.858E-01
   1   13    7     7     3    1.4685E+02  1.4229E+00   1.4542E+02  0.000E+00  0.000E+00  0.000E+00  1.02969E+03  2.271E+00  5.522E+01  5.585E-01  8.493E-01
   1   13    6     8     1    1.5428E+02  7.7739E-01   1.5350E+02  0.000E+00  0.000E+00  0.000E+00  1.02472E+03  2.844E+00  4.124E+01  4.202E-01  6.166E-01
   1   13    5     8     2    1.5350E+02  5.4743E-02   1.5345E+02  0.000E+00  0.000E+00  0.000E+00  1.01847E+03  2.841E+00  4.120E+01  4.198E-01  4.347E-02
   1   13    4     8     3    1.5345E+02 -2.9652E+00   1.5641E+02  0.000E+00  0.000E+00  0.000E+00  1.01223E+03  2.851E+00  4.134E+01  4.213E+00 -2.346E-01
   1   13    3     8     4    1.5641E+02 -4.0206E+00   1.6043E+02  0.000E+00  0.000E+00  0.000E+00  1.00600E+03  2.875E+00  4.169E+01  4.248E+00 -3.155E-01
   1   13    2     8     5    1.6043E+02 -2.9423E+00   1.6338E+02  0.000E+00  0.000E+00  0.000E+00  9.99774E+02  2.899E+00  4.203E+01  4.283E+00 -2.290E-01
   1   13    1     8     6    1.6338E+02 -2.2541E+00   1.6563E+02  0.000E+00  0.000E+00  0.000E+00  9.94791E+02  2.916E+00  4.228E+01  2.585E+00 -2.906E-01
   1    8    6     9     1    5.0879E+01  0.0000E+00   5.0879E+01  0.000E+00  0.000E+00  0.000E+00  1.08476E+03  6.014E+00  4.000E+00  0.000E+00  3.005E+00
   1    8    5     9     2    5.0879E+01  0.0000E+00   5.0879E+01  0.000E+00  0.000E+00  0.000E+00  1.08426E+03  6.014E+00  4.000E+00  0.000E+00  3.005E+00



 UBDSV3 SAVING "           GW ET" ON UNIT  61 AT TIME STEP 10, STRESS PERIOD   8
 UBDSV3 SAVING "    UZF RECHARGE" ON UNIT  61 AT TIME STEP 10, STRESS PERIOD   8
 UBDSV3 SAVING " SURFACE LEAKAGE" ON UNIT  61 AT TIME STEP 10, STRESS PERIOD   8
 UBDSV3 SAVING "       HORT+DUNN" ON UNIT  61 AT TIME STEP 10, STRESS PERIOD   8
 UBDSV3 SAVING "  STORAGE CHANGE" ON UNIT  61 AT TIME STEP 10, STRESS PERIOD   8


UNSATURATED ZONE PACKAGE VOLUMETRIC BUDGET FOR  TIME STEP    10 STRESS PERIOD    8
  ------------------------------------------------------------------------------



     CUMULATIVE VOLUMES      L**3       RATES FOR THIS TIME STEP      L**3/T
     ------------------                 ------------------------

           IN:                                      IN:
           ---                                      ---
        INFILTRATION =   195658293.9206          INFILTRATION =          60.7538

          OUT:                                     OUT:
          ----                                     ----
              UZF ET =   155128152.5846                UZF ET =          60.8175
        UZF RECHARGE =       73224.0000          UZF RECHARGE =       0.0000E+00

            IN - OUT =    40456917.3360              IN - OUT =      -6.3692E-02

          STORAGE:                                 STORAGE:
          --------                                 --------
      STORAGE CHANGE =    40472525.3531        STORAGE CHANGE =      -6.3689E-02

 PERCENT DISCREPANCY IS DIFFERENCE BETWEEN IN-OUT MINUS CHANGE IN STORAGE
 DIVIDED BY THE AVERAGE OF IN AND OUT TIMES 100

 PERCENT DISCREPANCY =          -0.00     PERCENT DISCREPANCY =          -0.00






 

        AG WELLS          PERIOD    8   STEP  10
 AG WELL      1   LAYER   1   ROW     6   COL     4   RATE    -1.50444    
 AG WELL      2   LAYER   1   ROW     6   COL     5   RATE    -1.50444    
 AG WELL      3   LAYER   1   ROW     7   COL     4   RATE    -1.50444    
 AG WELL      4   LAYER   1   ROW     7   COL     5   RATE    -1.50444    
 AG WELL      5   LAYER   1   ROW     8   COL     4   RATE    -1.50444    
 AG WELL      6   LAYER   1   ROW     8   COL     5   RATE    -1.50444    
 
 

   DIVERSION SEGMENTS     PERIOD    8   STEP  10
 SEGMENT      9   RATE     50.8787    
 
 

        SW IRRIGATION     PERIOD    8   STEP  10
 SEGMENT      9   ROW     6   COL     4   RATE     8.47995    
 SEGMENT      9   ROW     6   COL     5   RATE     8.47995    
 SEGMENT      9   ROW     7   COL     4   RATE     8.47995    
 SEGMENT      9   ROW     7   COL     5   RATE     8.47995    
 SEGMENT      9   ROW     8   COL     4   RATE     8.47995    
 SEGMENT      9   ROW     8   COL     5   RATE     8.47995    
 
 

        GW IRRIGATION     PERIOD    8   STEP  10
 AG WELL      1   ROW     6   COL     4   RATE     1.50444    
 AG WELL      2   ROW     6   COL     5   RATE     1.50444    
 AG WELL      3   ROW     7   COL     4   RATE     1.50444    
 AG WELL      4   ROW     7   COL     5   RATE     1.50444    
 AG WELL      5   ROW     8   COL     4   RATE     1.50444    
 AG WELL      6   ROW     8   COL     5   RATE     1.50444    
 
1
  VOLUMETRIC BUDGET FOR AGRICULTURAL FIELDS AT  END OF TIME STEP   10, STRESS PERIOD   8
  ------------------------------------------------------------------------------

     CUMULATIVE VOLUMES      L**3       RATES FOR THIS TIME STEP      L**3/T
     ------------------                 ------------------------

           IN:                                      IN:
           ---                                      ---
           AG WELLS      =    50045044.0000             AG WELLS      =           9.0266
      DIVERSION SEGMENTS =   131424416.0000        DIVERSION SEGMENTS =          50.8787
           GW IRRIGATION =           0.0000             GW IRRIGATION =           0.0000
           SW IRRIGATION =           0.0000             SW IRRIGATION =           0.0000
        SYSTEM LOSSES GW =           0.0000          SYSTEM LOSSES GW =           0.0000
        SYSTEM LOSSES SW =           0.0000          SYSTEM LOSSES SW =           0.0000

                TOTAL IN =   181469456.0000                  TOTAL IN =          59.9053

          OUT:                                     OUT:
          ----                                     ----
           AG WELLS      =           0.0000             AG WELLS      =           0.0000
      DIVERSION SEGMENTS =           0.0000        DIVERSION SEGMENTS =           0.0000
           GW IRRIGATION =    50045044.0000             GW IRRIGATION =           9.0266
           SW IRRIGATION =   131427032.0000             SW IRRIGATION =          50.8797
        SYSTEM LOSSES GW =           0.0000          SYSTEM LOSSES GW =           0.0000
        SYSTEM LOSSES SW =           0.0000          SYSTEM LOSSES SW =           0.0000

               TOTAL OUT =   181472080.0000                 TOTAL OUT =          59.9063

                IN - OUT =       -2624.0000                  IN - OUT =      -1.0147E-03

     PERCENT DISCREPANCY =          -0.00         PERCENT DISCREPANCY =          -0.00



1
  VOLUMETRIC BUDGET FOR ENTIRE MODEL AT END OF TIME STEP   10, STRESS PERIOD   8
  ------------------------------------------------------------------------------

     CUMULATIVE VOLUMES      L**3       RATES FOR THIS TIME STEP      L**3/T
     ------------------                 ------------------------

           IN:                                      IN:
           ---                                      ---
             STORAGE     =    83112904.0000               STORAGE     =          10.2780
       CONSTANT HEAD     =           0.0000         CONSTANT HEAD     =           0.0000
     HEAD DEP BOUNDS     =     4783869.0000       HEAD DEP BOUNDS     =           0.2858
      STREAM LEAKAGE     =   204997360.0000        STREAM LEAKAGE     =          12.0624
        UZF RECHARGE     =       73223.9531          UZF RECHARGE     =           0.0000
               GW ET     =           0.0000                 GW ET     =           0.0000
     SURFACE LEAKAGE     =           0.0000       SURFACE LEAKAGE     =           0.0000
           AG WELLS      =           0.0000             AG WELLS      =           0.0000

                TOTAL IN =   292967360.0000                  TOTAL IN =          22.6262

          OUT:                                     OUT:
          ----                                     ----
             STORAGE     =    58150424.0000               STORAGE     =           0.9863
       CONSTANT HEAD     =           0.0000         CONSTANT HEAD     =           0.0000
     HEAD DEP BOUNDS     =     4889118.5000       HEAD DEP BOUNDS     =           0.2912
      STREAM LEAKAGE     =   178351168.0000        STREAM LEAKAGE     =          12.3216
        UZF RECHARGE     =           0.0000          UZF RECHARGE     =           0.0000
               GW ET     =     1534490.7500                 GW ET     =           0.0000
     SURFACE LEAKAGE     =           0.0000       SURFACE LEAKAGE     =           0.0000
           AG WELLS      =    50045044.0000             AG WELLS      =           9.0266

               TOTAL OUT =   292970272.0000                 TOTAL OUT =          22.6258

                IN - OUT =       -2912.0000                  IN - OUT =       4.2152E-04

     PERCENT DISCREPANCY =          -0.00         PERCENT DISCREPANCY =           0.00






         TIME SUMMARY AT END OF TIME STEP   10 IN STRESS PERIOD    8
                    SECONDS     MINUTES      HOURS       DAYS        YEARS
                    -----------------------------------------------------------
   TIME STEP LENGTH  87667.      1461.1      24.352      1.0147     2.77799E-03
 STRESS PERIOD TIME 8.76667E+05  14611.      243.52      10.147     2.77799E-02
         TOTAL TIME 1.67431E+07 2.79052E+05  4650.9      193.79     0.53056    
1
 
 SOLVING FOR HEAD 
                                                   Max.-Head-Change                         Max.-Flux-Residual
  Residual-Control   Outer-Iter.   Inner-Iter.     Column Row Layer    Maximum-Head-Change  Column Row Layer    Maximum-Flux-Residual          L2-NORM 
          0                 1           2             4   13     1       0.1486621069E-01       4   13    1         0.8580534846E+00      0.1944629333E+01
          0                 2           2             7   13     1      -0.3562229064E-02       7   13    1        -0.1975817101E+00      0.2730459245E+00
          0                 3           2             4    7     1      -0.1858560864E+00       4    7    1        -0.9976121026E+01      0.2451306422E+02
          0                 4           2             4    7     1       0.1663080309E+00       5    6    1         0.9176392228E+01      0.2247817479E+02
          0                 5           2             4    7     1      -0.6651455801E-02       5    8    1        -0.3773952176E+00      0.9243493880E+00
          0                 6           1             4    7     1       0.8207594145E-04       5    8    1         0.4787582694E-02      0.1173170373E-01

    ------------------------------------------------
       NWT REQUIRED            6 OUTER ITERATIONS 
       AND A TOTAL OF         11 INNER ITERATIONS.
    ------------------------------------------------

 NO OUTPUT CONTROL FOR STRESS PERIOD    8   TIME STEP   11
 
 SOLVING FOR HEAD 
                                                   Max.-Head-Change                         Max.-Flux-Residual
  Residual-Control   Outer-Iter.   Inner-Iter.     Column Row Layer    Maximum-Head-Change  Column Row Layer    Maximum-Flux-Residual          L2-NORM 
          0                 1           2             4   13     1       0.1529564899E-01       4   13    1         0.8828423885E+00      0.2005856312E+01
          0                 2           2             7   13     1      -0.3574395569E-02       7   13    1        -0.1982549165E+00      0.2777080483E+00
          0                 3           2             4    7     1      -0.1858567537E+00       4    7    1        -0.9976154699E+01      0.2451327538E+02
          0                 4           2             4    7     1       0.1663062211E+00       5    6    1         0.9176284162E+01      0.2247791361E+02
          0                 5           2             4    7     1      -0.6651385880E-02       5    8    1        -0.3773909131E+00      0.9243388140E+00
          0                 6           1             4    7     1       0.8207507893E-04       5    8    1         0.4787528060E-02      0.1173154046E-01

    ------------------------------------------------
       NWT REQUIRED            6 OUTER ITERATIONS 
       AND A TOTAL OF         11 INNER ITERATIONS.
    ------------------------------------------------

 NO OUTPUT CONTROL FOR STRESS PERIOD    8   TIME STEP   12
 
 SOLVING FOR HEAD 
                                                   Max.-Head-Change                         Max.-Flux-Residual
  Residual-Control   Outer-Iter.   Inner-Iter.     Column Row Layer    Maximum-Head-Change  Column Row Layer    Maximum-Flux-Residual          L2-NORM 
          0                 1           2             4   13     1       0.1568584486E-01       4   13    1         0.9053565114E+00      0.2063773825E+01
          0                 2           2             7   13     1      -0.3586279726E-02       7   13    1        -0.1989124909E+00      0.2821861439E+00
          0                 3           2             4    7     1      -0.1858574037E+00       4    7    1        -0.9976187188E+01      0.2451348006E+02
          0                 4           2             4    7     1       0.1663063342E+00       5    6    1         0.9176282617E+01      0.2247791287E+02
          0                 5           2             4    7     1      -0.6651388293E-02       5    8    1        -0.3773907315E+00      0.9243383188E+00
          0                 6           1             4    7     1       0.8207510873E-04       5    8    1         0.4787525726E-02      0.1173151146E-01

    ------------------------------------------------
       NWT REQUIRED            6 OUTER ITERATIONS 
       AND A TOTAL OF         11 INNER ITERATIONS.
    ------------------------------------------------

 NO OUTPUT CONTROL FOR STRESS PERIOD    8   TIME STEP   13
 
 SOLVING FOR HEAD 
                                                   Max.-Head-Change                         Max.-Flux-Residual
  Residual-Control   Outer-Iter.   Inner-Iter.     Column Row Layer    Maximum-Head-Change  Column Row Layer    Maximum-Flux-Residual          L2-NORM 
          0                 1           2             4   13     1       0.1604021350E-01       4   13    1         0.9257944084E+00      0.2118559415E+01
          0                 2           2             7   13     1      -0.3597785504E-02       7   13    1        -0.1995491048E+00      0.2864781484E+00
          0                 3           2             4    7     1      -0.1858579861E+00       4    7    1        -0.9976215814E+01      0.2451367001E+02
          0                 4           2             4    7     1       0.1663064266E+00       5    6    1         0.9176280343E+01      0.2247790928E+02
          0                 5           2             4    7     1      -0.6651391983E-02       5    8    1        -0.3773906391E+00      0.9243379134E+00
          0                 6           1             4    7     1       0.8207515421E-04       5    8    1         0.4787524506E-02      0.1173146418E-01

    ------------------------------------------------
       NWT REQUIRED            6 OUTER ITERATIONS 
       AND A TOTAL OF         11 INNER ITERATIONS.
    ------------------------------------------------

 NO OUTPUT CONTROL FOR STRESS PERIOD    8   TIME STEP   14
 
 SOLVING FOR HEAD 
                                                   Max.-Head-Change                         Max.-Flux-Residual
  Residual-Control   Outer-Iter.   Inner-Iter.     Column Row Layer    Maximum-Head-Change  Column Row Layer    Maximum-Flux-Residual          L2-NORM 
          0                 1           2             4   13     1       0.1636228110E-01       4   13    1         0.9443612433E+00      0.2170443363E+01
          0                 2           2             7   13     1      -0.3608962295E-02       7   13    1        -0.2001674826E+00      0.2905930693E+00
          0                 3           2             4    7     1      -0.1858585373E+00       4    7    1        -0.9976242547E+01      0.2451385087E+02
          0                 4           2             4    7     1       0.1663065245E+00       4    7    1         0.9176281428E+01      0.2247790746E+02
          0                 5           2             4    7     1      -0.6651395889E-02       5    8    1        -0.3773905745E+00      0.9243376825E+00
          0                 6           1             4    7     1       0.8207520215E-04       5    8    1         0.4787523648E-02      0.1173143484E-01

    ------------------------------------------------
       NWT REQUIRED            6 OUTER ITERATIONS 
       AND A TOTAL OF         11 INNER ITERATIONS.
    ------------------------------------------------

 OUTPUT CONTROL FOR STRESS PERIOD    8   TIME STEP   15
    PRINT BUDGET
    SAVE BUDGET
 UBDSV1 SAVING "         STORAGE" ON UNIT 102 AT TIME STEP 15, STRESS PERIOD   8
 UBDSV2 SAVING "   CONSTANT HEAD" ON UNIT 102 AT TIME STEP 15, STRESS PERIOD   8
 UBDSV1 SAVING "FLOW RIGHT FACE " ON UNIT 102 AT TIME STEP 15, STRESS PERIOD   8
 UBDSV1 SAVING "FLOW FRONT FACE " ON UNIT 102 AT TIME STEP 15, STRESS PERIOD   8

  HEAD DEP BOUNDS   PERIOD    8   STEP    15
 BOUNDARY      1   LAYER   1   ROW    13   COL     1   RATE   -0.290340    
 BOUNDARY      2   LAYER   1   ROW    14   COL     9   RATE    0.285762    



 STREAM LISTING     PERIOD      8   STEP       15

 LAYER ROW COL. STREAM  RCH.  FLOW INTO     FLOW TO   FLOW OUT OF   OVRLND.     DIRECT     STREAM       STREAM     STREAM     STREAM   STREAMBED  STREAMBED
                SEG.NO.  NO.  STRM. RCH.    AQUIFER    STRM. RCH.    RUNOFF     PRECIP       ET          HEAD       DEPTH      WIDTH   CONDCTNC.   GRADIENT

   1    1    1     1     1    5.6250E+01  3.5874E-01   5.5891E+01  0.000E+00  0.000E+00  0.000E+00  1.09453E+03  1.479E+00  1.780E+01  8.010E-02  1.493E+00
   1    2    2     1     2    5.5891E+01  5.5550E-01   5.5335E+01  0.000E+00  0.000E+00  0.000E+00  1.08953E+03  1.473E+00  1.774E+01  1.242E-01  1.491E+00
   1    3    3     1     3    5.5335E+01  4.7368E-01   5.4862E+01  0.000E+00  0.000E+00  0.000E+00  1.08389E+03  1.467E+00  1.767E+01  1.060E-01  1.489E+00
   1    3    4     1     4    5.4862E+01  4.3613E-01   5.4426E+01  0.000E+00  0.000E+00  0.000E+00  1.07887E+03  1.461E+00  1.762E+01  9.777E-02  1.487E+00
   1    4    5     2     1    5.2426E+01  3.8056E-01   5.2045E+01  0.000E+00  0.000E+00  0.000E+00  1.07381E+03  1.879E+00  1.200E+01  7.800E-02  1.626E+00
   1    5    6     2     2    5.2045E+01  2.9230E-01   5.1753E+01  0.000E+00  0.000E+00  0.000E+00  1.06838E+03  1.872E+00  1.200E+01  6.000E-02  1.624E+00
   1    6    6     2     3    5.1753E+01  2.9192E-01   5.1461E+01  0.000E+00  0.000E+00  0.000E+00  1.06366E+03  1.865E+00  1.200E+01  6.000E-02  1.622E+00
   1    7    6     2     4    5.1461E+01  2.9154E-01   5.1169E+01  0.000E+00  0.000E+00  0.000E+00  1.05893E+03  1.859E+00  1.200E+01  6.000E-02  1.620E+00
   1    8    6     2     5    5.1169E+01  2.9116E-01   5.0878E+01  0.000E+00  0.000E+00  0.000E+00  1.05421E+03  1.853E+00  1.200E+01  6.000E-02  1.618E+00
   1    3    5     3     1    2.0000E+00  2.8252E-01   1.7175E+00  0.000E+00  0.000E+00  0.000E+00  1.07555E+03  1.909E+00  9.636E+00  7.227E-02  1.955E+00
   1    3    6     3     2    1.7175E+00  2.4905E-01   1.4684E+00  0.000E+00  0.000E+00  0.000E+00  1.07264E+03  1.727E+00  8.909E+00  6.682E-02  1.864E+00
   1    3    7     3     3    1.4684E+00  1.9718E-01   1.2712E+00  0.000E+00  0.000E+00  0.000E+00  1.06987E+03  1.555E+00  8.218E+00  5.547E-02  1.777E+00
   1    4    8     3     4    1.2712E+00  2.2567E-01   1.0456E+00  0.000E+00  0.000E+00  0.000E+00  1.06682E+03  1.364E+00  7.455E+00  6.709E-02  1.682E+00
   1    5    8     3     5    1.0456E+00  1.5790E-01   8.8768E-01  0.000E+00  0.000E+00  0.000E+00  1.06362E+03  1.164E+00  6.655E+00  4.991E-02  1.582E+00
   1    6    8     3     6    8.8768E-01  5.5980E-02   8.3170E-01  0.000E+00  0.000E+00  0.000E+00  1.06158E+03  1.036E+00  6.145E+00  1.844E-02  1.518E+00
   1    5   10     4     1    1.0000E+01  9.0919E-02   9.9091E+00  0.000E+00  0.000E+00  0.000E+00  1.07836E+03  6.368E-01  1.000E+01  2.500E-02  1.212E+00
   1    5    9     4     2    9.9091E+00  1.8158E-01   9.7275E+00  0.000E+00  0.000E+00  0.000E+00  1.07154E+03  6.315E-01  1.000E+01  5.000E-02  1.211E+00
   1    6    8     4     3    9.7275E+00  1.2689E-01   9.6006E+00  0.000E+00  0.000E+00  0.000E+00  1.06381E+03  6.256E-01  1.000E+01  3.500E-02  1.209E+00
   1    6    8     5     1    1.0432E+01  2.2686E-01   1.0205E+01  0.000E+00  0.000E+00  0.000E+00  1.05868E+03  6.790E-01  1.542E+01  6.166E-02  1.226E+00
   1    7    7     5     2    1.0205E+01  2.7894E-01   9.9265E+00  0.000E+00  0.000E+00  0.000E+00  1.05417E+03  6.732E-01  1.519E+01  7.594E-02  1.224E+00
   1    8    7     5     3    9.9265E+00  1.9221E-01   9.7343E+00  0.000E+00  0.000E+00  0.000E+00  1.04992E+03  6.676E-01  1.497E+01  5.241E-02  1.223E+00
   1    8    6     5     4    9.7343E+00  1.3577E-01   9.5985E+00  0.000E+00  0.000E+00  0.000E+00  1.04691E+03  6.637E-01  1.482E+01  3.706E-02  1.221E+00
   1    9    6     6     1    9.5985E+00  2.2097E-01   9.3776E+00  0.000E+00  0.000E+00  0.000E+00  1.04341E+03  6.828E-01  1.200E+01  6.000E-02  1.228E+00
   1   10    7     6     2    9.3776E+00  2.2039E-01   9.1572E+00  0.000E+00  0.000E+00  0.000E+00  1.03885E+03  6.732E-01  1.200E+01  6.000E-02  1.224E+00
   1   11    7     6     3    9.1572E+00  2.1981E-01   8.9374E+00  0.000E+00  0.000E+00  0.000E+00  1.03430E+03  6.636E-01  1.200E+01  6.000E-02  1.221E+00
   1   12    7     6     4    8.9374E+00  2.1923E-01   8.7181E+00  0.000E+00  0.000E+00  0.000E+00  1.02974E+03  6.539E-01  1.200E+01  6.000E-02  1.218E+00
   1   13    7     6     5    8.7181E+00 -1.3732E-01   8.8554E+00  0.000E+00  0.000E+00  0.000E+00  1.02656E+03  6.520E-01  1.200E+01  2.400E-01 -1.907E-01
   1   14    9     7     1    1.5000E+02  1.3359E+00   1.4866E+02  0.000E+00  0.000E+00  0.000E+00  1.03987E+03  2.288E+00  5.529E+01  5.593E-01  7.961E-01
   1   13    8     7     2    1.4866E+02  1.8183E+00   1.4685E+02  0.000E+00  0.000E+00  0.000E+00  1.03478E+03  2.279E+00  5.526E+01  6.148E-01  9.859E-01
   1   13    7     7     3    1.4685E+02  1.4278E+00   1.4542E+02  0.000E+00  0.000E+00  0.000E+00  1.02969E+03  2.271E+00  5.522E+01  5.585E-01  8.522E-01
   1   13    6     8     1    1.5427E+02  7.8182E-01   1.5349E+02  0.000E+00  0.000E+00  0.000E+00  1.02472E+03  2.844E+00  4.124E+01  4.202E-01  6.202E-01
   1   13    5     8     2    1.5349E+02  5.9173E-02   1.5343E+02  0.000E+00  0.000E+00  0.000E+00  1.01847E+03  2.841E+00  4.120E+01  4.198E-01  4.699E-02
   1   13    4     8     3    1.5343E+02 -2.8886E+00   1.5632E+02  0.000E+00  0.000E+00  0.000E+00  1.01223E+03  2.851E+00  4.134E+01  4.212E+00 -2.286E-01
   1   13    3     8     4    1.5632E+02 -3.9474E+00   1.6027E+02  0.000E+00  0.000E+00  0.000E+00  1.00600E+03  2.874E+00  4.168E+01  4.247E+00 -3.098E-01
   1   13    2     8     5    1.6027E+02 -2.8436E+00   1.6311E+02  0.000E+00  0.000E+00  0.000E+00  9.99772E+02  2.897E+00  4.201E+01  4.281E+00 -2.214E-01
   1   13    1     8     6    1.6311E+02 -2.1997E+00   1.6531E+02  0.000E+00  0.000E+00  0.000E+00  9.94789E+02  2.914E+00  4.225E+01  2.584E+00 -2.838E-01
   1    8    6     9     1    5.0878E+01  0.0000E+00   5.0878E+01  0.000E+00  0.000E+00  0.000E+00  1.08476E+03  6.014E+00  4.000E+00  0.000E+00  3.005E+00
   1    8    5     9     2    5.0878E+01  0.0000E+00   5.0878E+01  0.000E+00  0.000E+00  0.000E+00  1.08426E+03  6.014E+00  4.000E+00  0.000E+00  3.005E+00



 UBDSV3 SAVING "           GW ET" ON UNIT  61 AT TIME STEP 15, STRESS PERIOD   8
 UBDSV3 SAVING "    UZF RECHARGE" ON UNIT  61 AT TIME STEP 15, STRESS PERIOD   8
 UBDSV3 SAVING " SURFACE LEAKAGE" ON UNIT  61 AT TIME STEP 15, STRESS PERIOD   8
 UBDSV3 SAVING "       HORT+DUNN" ON UNIT  61 AT TIME STEP 15, STRESS PERIOD   8
 UBDSV3 SAVING "  STORAGE CHANGE" ON UNIT  61 AT TIME STEP 15, STRESS PERIOD   8


UNSATURATED ZONE PACKAGE VOLUMETRIC BUDGET FOR  TIME STEP    15 STRESS PERIOD    8
  ------------------------------------------------------------------------------



     CUMULATIVE VOLUMES      L**3       RATES FOR THIS TIME STEP      L**3/T
     ------------------                 ------------------------

           IN:                                      IN:
           ---                                      ---
        INFILTRATION =   222289499.2750          INFILTRATION =          60.7568

          OUT:                                     OUT:
          ----                                     ----
              UZF ET =   181786488.8140                UZF ET =          60.8175
        UZF RECHARGE =       73224.0000          UZF RECHARGE =       0.0000E+00

            IN - OUT =    40429786.4610              IN - OUT =      -6.0734E-02

          STORAGE:                                 STORAGE:
          --------                                 --------
      STORAGE CHANGE =    40445393.6745        STORAGE CHANGE =      -6.0734E-02

 PERCENT DISCREPANCY IS DIFFERENCE BETWEEN IN-OUT MINUS CHANGE IN STORAGE
 DIVIDED BY THE AVERAGE OF IN AND OUT TIMES 100

 PERCENT DISCREPANCY =          -0.00     PERCENT DISCREPANCY =           0.00






 

        AG WELLS          PERIOD    8   STEP  15
 AG WELL      1   LAYER   1   ROW     6   COL     4   RATE    -1.50504    
 AG WELL      2   LAYER   1   ROW     6   COL     5   RATE    -1.50504    
 AG WELL      3   LAYER   1   ROW     7   COL     4   RATE    -1.50504    
 AG WELL      4   LAYER   1   ROW     7   COL     5   RATE    -1.50504    
 AG WELL      5   LAYER   1   ROW     8   COL     4   RATE    -1.50504    
 AG WELL      6   LAYER   1   ROW     8   COL     5   RATE    -1.50504    
 
 

   DIVERSION SEGMENTS     PERIOD    8   STEP  15
 SEGMENT      9   RATE     50.8780    
 
 

        SW IRRIGATION     PERIOD    8   STEP  15
 SEGMENT      9   ROW     6   COL     4   RATE     8.47984    
 SEGMENT      9   ROW     6   COL     5   RATE     8.47984    
 SEGMENT      9   ROW     7   COL     4   RATE     8.47984    
 SEGMENT      9   ROW     7   COL     5   RATE     8.47984    
 SEGMENT      9   ROW     8   COL     4   RATE     8.47984    
 SEGMENT      9   ROW     8   COL     5   RATE     8.47984    
 
 

        GW IRRIGATION     PERIOD    8   STEP  15
 AG WELL      1   ROW     6   COL     4   RATE     1.50504    
 AG WELL      2   ROW     6   COL     5   RATE     1.50504    
 AG WELL      3   ROW     7   COL     4   RATE     1.50504    
 AG WELL      4   ROW     7   COL     5   RATE     1.50504    
 AG WELL      5   ROW     8   COL     4   RATE     1.50504    
 AG WELL      6   ROW     8   COL     5   RATE     1.50504    
 
1
  VOLUMETRIC BUDGET FOR AGRICULTURAL FIELDS AT  END OF TIME STEP   15, STRESS PERIOD   8
  ------------------------------------------------------------------------------

     CUMULATIVE VOLUMES      L**3       RATES FOR THIS TIME STEP      L**3/T
     ------------------                 ------------------------

           IN:                                      IN:
           ---                                      ---
           AG WELLS      =    54002724.0000             AG WELLS      =           9.0302
      DIVERSION SEGMENTS =   153726000.0000        DIVERSION SEGMENTS =          50.8780
           GW IRRIGATION =           0.0000             GW IRRIGATION =           0.0000
           SW IRRIGATION =           0.0000             SW IRRIGATION =           0.0000
        SYSTEM LOSSES GW =           0.0000          SYSTEM LOSSES GW =           0.0000
        SYSTEM LOSSES SW =           0.0000          SYSTEM LOSSES SW =           0.0000

                TOTAL IN =   207728720.0000                  TOTAL IN =          59.9082

          OUT:                                     OUT:
          ----                                     ----
           AG WELLS      =           0.0000             AG WELLS      =           0.0000
      DIVERSION SEGMENTS =           0.0000        DIVERSION SEGMENTS =           0.0000
           GW IRRIGATION =    54002724.0000             GW IRRIGATION =           9.0302
           SW IRRIGATION =   153729088.0000             SW IRRIGATION =          50.8790
        SYSTEM LOSSES GW =           0.0000          SYSTEM LOSSES GW =           0.0000
        SYSTEM LOSSES SW =           0.0000          SYSTEM LOSSES SW =           0.0000

               TOTAL OUT =   207731808.0000                 TOTAL OUT =          59.9093

                IN - OUT =       -3088.0000                  IN - OUT =      -1.0185E-03

     PERCENT DISCREPANCY =          -0.00         PERCENT DISCREPANCY =          -0.00



1
  VOLUMETRIC BUDGET FOR ENTIRE MODEL AT END OF TIME STEP   15, STRESS PERIOD   8
  ------------------------------------------------------------------------------

     CUMULATIVE VOLUMES      L**3       RATES FOR THIS TIME STEP      L**3/T
     ------------------                 ------------------------

           IN:                                      IN:
           ---                                      ---
             STORAGE     =    87525504.0000               STORAGE     =           9.9401
       CONSTANT HEAD     =           0.0000         CONSTANT HEAD     =           0.0000
     HEAD DEP BOUNDS     =     4909129.0000       HEAD DEP BOUNDS     =           0.2858
      STREAM LEAKAGE     =   210288464.0000        STREAM LEAKAGE     =          12.0764
        UZF RECHARGE     =       73223.9531          UZF RECHARGE     =           0.0000
               GW ET     =           0.0000                 GW ET     =           0.0000
     SURFACE LEAKAGE     =           0.0000       SURFACE LEAKAGE     =           0.0000
           AG WELLS      =           0.0000             AG WELLS      =           0.0000

                TOTAL IN =   302796320.0000                  TOTAL IN =          22.3023

          OUT:                                     OUT:
          ----                                     ----
             STORAGE     =    58577132.0000               STORAGE     =           0.9647
       CONSTANT HEAD     =           0.0000         CONSTANT HEAD     =           0.0000
     HEAD DEP BOUNDS     =     5016527.0000       HEAD DEP BOUNDS     =           0.2903
      STREAM LEAKAGE     =   183668144.0000        STREAM LEAKAGE     =          12.0166
        UZF RECHARGE     =           0.0000          UZF RECHARGE     =           0.0000
               GW ET     =     1534490.7500                 GW ET     =           0.0000
     SURFACE LEAKAGE     =           0.0000       SURFACE LEAKAGE     =           0.0000
           AG WELLS      =    54002724.0000             AG WELLS      =           9.0302

               TOTAL OUT =   302799040.0000                 TOTAL OUT =          22.3019

                IN - OUT =       -2720.0000                  IN - OUT =       4.2152E-04

     PERCENT DISCREPANCY =          -0.00         PERCENT DISCREPANCY =           0.00






         TIME SUMMARY AT END OF TIME STEP   15 IN STRESS PERIOD    8
                    SECONDS     MINUTES      HOURS       DAYS        YEARS
                    -----------------------------------------------------------
   TIME STEP LENGTH  87667.      1461.1      24.352      1.0147     2.77799E-03
 STRESS PERIOD TIME 1.31500E+06  21917.      365.28      15.220     4.16698E-02
         TOTAL TIME 1.71814E+07 2.86357E+05  4772.6      198.86     0.54445    
1
 
 SOLVING FOR HEAD 
                                                   Max.-Head-Change                         Max.-Flux-Residual
  Residual-Control   Outer-Iter.   Inner-Iter.     Column Row Layer    Maximum-Head-Change  Column Row Layer    Maximum-Flux-Residual          L2-NORM 
          0                 1           2             4   13     1       0.1665508861E-01       4   13    1         0.9612335385E+00      0.2219610396E+01
          0                 2           2             7   13     1      -0.3619822564E-02       7   13    1        -0.2007683353E+00      0.2945369212E+00
          0                 3           2             4    7     1      -0.1858590601E+00       4    7    1        -0.9976267543E+01      0.2451402340E+02
          0                 4           2             4    7     1       0.1663066278E+00       4    7    1         0.9176283541E+01      0.2247790685E+02
          0                 5           2             4    7     1      -0.6651400016E-02       5    8    1        -0.3773905371E+00      0.9243375026E+00
          0                 6           1             4    7     1       0.8207525323E-04       5    8    1         0.4787523145E-02      0.1173140637E-01

    ------------------------------------------------
       NWT REQUIRED            6 OUTER ITERATIONS 
       AND A TOTAL OF         11 INNER ITERATIONS.
    ------------------------------------------------

 NO OUTPUT CONTROL FOR STRESS PERIOD    8   TIME STEP   16
 
 SOLVING FOR HEAD 
                                                   Max.-Head-Change                         Max.-Flux-Residual
  Residual-Control   Outer-Iter.   Inner-Iter.     Column Row Layer    Maximum-Head-Change  Column Row Layer    Maximum-Flux-Residual          L2-NORM 
          0                 1           2             4   13     1       0.1692156193E-01       4   13    1         0.9765812764E+00      0.2266237401E+01
          0                 2           2             7   13     1      -0.3630341009E-02       7   13    1        -0.2013502622E+00      0.2983139847E+00
          0                 3           2             4    7     1      -0.1858595246E+00       4    7    1        -0.9976289248E+01      0.2451418378E+02
          0                 4           2             4    7     1       0.1663067106E+00       4    7    1         0.9176284471E+01      0.2247790387E+02
          0                 5           2             4    7     1      -0.6651405427E-02       5    8    1        -0.3773905859E+00      0.9243375107E+00
          0                 6           1             4    7     1       0.8207531999E-04       5    8    1         0.4787523720E-02      0.1173137904E-01

    ------------------------------------------------
       NWT REQUIRED            6 OUTER ITERATIONS 
       AND A TOTAL OF         11 INNER ITERATIONS.
    ------------------------------------------------

 NO OUTPUT CONTROL FOR STRESS PERIOD    8   TIME STEP   17
 
 SOLVING FOR HEAD 
                                                   Max.-Head-Change                         Max.-Flux-Residual
  Residual-Control   Outer-Iter.   Inner-Iter.     Column Row Layer    Maximum-Head-Change  Column Row Layer    Maximum-Flux-Residual          L2-NORM 
          0                 1           2             4   13     1       0.1716406728E-01       4   13    1         0.9905420845E+00      0.2310508107E+01
          0                 2           2             7   13     1      -0.3640567842E-02       7   13    1        -0.2019160139E+00      0.3019358820E+00
          0                 3           2             4    7     1      -0.1858599632E+00       4    7    1        -0.9976309384E+01      0.2451433680E+02
          0                 4           2             4    7     1       0.1663068076E+00       4    7    1         0.9176286125E+01      0.2247790324E+02
          0                 5           2             4    7     1      -0.6651407197E-02       5    8    1        -0.3773904407E+00      0.9243370419E+00
          0                 6           1             4    7     1       0.8207534172E-04       5    8    1         0.4787521842E-02      0.1173134683E-01

    ------------------------------------------------
       NWT REQUIRED            6 OUTER ITERATIONS 
       AND A TOTAL OF         11 INNER ITERATIONS.
    ------------------------------------------------

 NO OUTPUT CONTROL FOR STRESS PERIOD    8   TIME STEP   18
 
 SOLVING FOR HEAD 
                                                   Max.-Head-Change                         Max.-Flux-Residual
  Residual-Control   Outer-Iter.   Inner-Iter.     Column Row Layer    Maximum-Head-Change  Column Row Layer    Maximum-Flux-Residual          L2-NORM 
          0                 1           2             4   13     1       0.1738490822E-01       4   13    1         0.1003249446E+01      0.2352558332E+01
          0                 2           2             7   13     1      -0.3650514108E-02       7   13    1        -0.2024662436E+00      0.3054063266E+00
          0                 3           2             4    7     1      -0.1858603834E+00       4    7    1        -0.9976328392E+01      0.2451448364E+02
          0                 4           2             4    7     1       0.1663068995E+00       4    7    1         0.9176287462E+01      0.2247790230E+02
          0                 5           2             4    7     1      -0.6651410867E-02       5    8    1        -0.3773904150E+00      0.9243368626E+00
          0                 6           1             4    7     1       0.8207538720E-04       5    8    1         0.4787521459E-02      0.1173132451E-01

    ------------------------------------------------
       NWT REQUIRED            6 OUTER ITERATIONS 
       AND A TOTAL OF         11 INNER ITERATIONS.
    ------------------------------------------------

 NO OUTPUT CONTROL FOR STRESS PERIOD    8   TIME STEP   19
 
 SOLVING FOR HEAD 
                                                   Max.-Head-Change                         Max.-Flux-Residual
  Residual-Control   Outer-Iter.   Inner-Iter.     Column Row Layer    Maximum-Head-Change  Column Row Layer    Maximum-Flux-Residual          L2-NORM 
          0                 1           2             4   13     1       0.1758617830E-01       4   13    1         0.1014824940E+01      0.2392563897E+01
          0                 2           2             7   13     1      -0.3660152204E-02       7   13    1        -0.2029993815E+00      0.3087355836E+00
          0                 3           2             4    7     1      -0.1858607655E+00       4    7    1        -0.9976345218E+01      0.2451462213E+02
          0                 4           2             4    7     1       0.1663069893E+00       4    7    1         0.9176288645E+01      0.2247790146E+02
          0                 5           2             4    7     1      -0.6651414456E-02       5    8    1        -0.3773903956E+00      0.9243366827E+00
          0                 6           1             4    7     1       0.8207543111E-04       5    8    1         0.4787521185E-02      0.1173129631E-01

    ------------------------------------------------
       NWT REQUIRED            6 OUTER ITERATIONS 
       AND A TOTAL OF         11 INNER ITERATIONS.
    ------------------------------------------------

 NO OUTPUT CONTROL FOR STRESS PERIOD    8   TIME STEP   20
 
 SOLVING FOR HEAD 
                                                   Max.-Head-Change                         Max.-Flux-Residual
  Residual-Control   Outer-Iter.   Inner-Iter.     Column Row Layer    Maximum-Head-Change  Column Row Layer    Maximum-Flux-Residual          L2-NORM 
          0                 1           2             4   13     1       0.1776984645E-01       4   13    1         0.1025383083E+01      0.2430646600E+01
          0                 2           2             7   13     1      -0.3669530359E-02       7   13    1        -0.2035181380E+00      0.3119290796E+00
          0                 3           2             4    7     1      -0.1858611291E+00       4    7    1        -0.9976360920E+01      0.2451475518E+02
          0                 4           2             4    7     1       0.1663070848E+00       4    7    1         0.9176290108E+01      0.2247790174E+02
          0                 5           2             4    7     1      -0.6651418271E-02       5    8    1        -0.3773903992E+00      0.9243365587E+00
          0                 6           1             4    7     1       0.8207547838E-04       5    8    1         0.4787521184E-02      0.1173126783E-01

    ------------------------------------------------
       NWT REQUIRED            6 OUTER ITERATIONS 
       AND A TOTAL OF         11 INNER ITERATIONS.
    ------------------------------------------------

 NO OUTPUT CONTROL FOR STRESS PERIOD    8   TIME STEP   21
 
 SOLVING FOR HEAD 
                                                   Max.-Head-Change                         Max.-Flux-Residual
  Residual-Control   Outer-Iter.   Inner-Iter.     Column Row Layer    Maximum-Head-Change  Column Row Layer    Maximum-Flux-Residual          L2-NORM 
          0                 1           2             4   13     1       0.1793729974E-01       4   13    1         0.1035003972E+01      0.2466941741E+01
          0                 2           2             7   13     1      -0.3678640798E-02       7   13    1        -0.2040220531E+00      0.3149943700E+00
          0                 3           2             4    7     1      -0.1858614598E+00       4    7    1        -0.9976374749E+01      0.2451488084E+02
          0                 4           2             4    7     1       0.1663071654E+00       4    7    1         0.9176290724E+01      0.2247790034E+02
          0                 5           2             4    7     1      -0.6651421492E-02       5    8    1        -0.3773903784E+00      0.9243363648E+00
          0                 6           1             4    7     1       0.8207551803E-04       5    8    1         0.4787520899E-02      0.1173124390E-01

    ------------------------------------------------
       NWT REQUIRED            6 OUTER ITERATIONS 
       AND A TOTAL OF         11 INNER ITERATIONS.
    ------------------------------------------------

 NO OUTPUT CONTROL FOR STRESS PERIOD    8   TIME STEP   22
 
 SOLVING FOR HEAD 
                                                   Max.-Head-Change                         Max.-Flux-Residual
  Residual-Control   Outer-Iter.   Inner-Iter.     Column Row Layer    Maximum-Head-Change  Column Row Layer    Maximum-Flux-Residual          L2-NORM 
          0                 1           2             4   13     1       0.1809024812E-01       4   13    1         0.1043787023E+01      0.2501550611E+01
          0                 2           2             7   13     1      -0.3687512319E-02       7   13    1        -0.2045127305E+00      0.3179386763E+00
          0                 3           2             4    7     1      -0.1858617588E+00       4    7    1        -0.9976386788E+01      0.2451499949E+02
          0                 4           2             4    7     1       0.1663072463E+00       4    7    1         0.9176291333E+01      0.2247789929E+02
          0                 5           2             4    7     1      -0.6651426825E-02       5    8    1        -0.3773904862E+00      0.9243364768E+00
          0                 6           1             4    7     1       0.8207558412E-04       5    8    1         0.4787522201E-02      0.1173122575E-01

    ------------------------------------------------
       NWT REQUIRED            6 OUTER ITERATIONS 
       AND A TOTAL OF         11 INNER ITERATIONS.
    ------------------------------------------------

 NO OUTPUT CONTROL FOR STRESS PERIOD    8   TIME STEP   23
 
 SOLVING FOR HEAD 
                                                   Max.-Head-Change                         Max.-Flux-Residual
  Residual-Control   Outer-Iter.   Inner-Iter.     Column Row Layer    Maximum-Head-Change  Column Row Layer    Maximum-Flux-Residual          L2-NORM 
          0                 1           2             4   13     1       0.1823000583E-01       4   13    1         0.1051808350E+01      0.2534607560E+01
          0                 2           2             7   13     1      -0.3696133135E-02       7   13    1        -0.2049895244E+00      0.3207686705E+00
          0                 3           2             4    7     1      -0.1858620613E+00       4    7    1        -0.9976398920E+01      0.2451511618E+02
          0                 4           2             4    7     1       0.1663073362E+00       4    7    1         0.9176292426E+01      0.2247789977E+02
          0                 5           2             4    7     1      -0.6651428316E-02       5    8    1        -0.3773903844E+00      0.9243360752E+00
          0                 6           1             4    7     1       0.8207560249E-04       5    8    1         0.4787520864E-02      0.1173119120E-01

    ------------------------------------------------
       NWT REQUIRED            6 OUTER ITERATIONS 
       AND A TOTAL OF         11 INNER ITERATIONS.
    ------------------------------------------------

 NO OUTPUT CONTROL FOR STRESS PERIOD    8   TIME STEP   24
 
 SOLVING FOR HEAD 
                                                   Max.-Head-Change                         Max.-Flux-Residual
  Residual-Control   Outer-Iter.   Inner-Iter.     Column Row Layer    Maximum-Head-Change  Column Row Layer    Maximum-Flux-Residual          L2-NORM 
          0                 1           2             4   13     1       0.1835778224E-01       4   13    1         0.1059138008E+01      0.2566204506E+01
          0                 2           2             7   13     1      -0.3704512924E-02       7   13    1        -0.2054529633E+00      0.3234880360E+00
          0                 3           2             4    7     1      -0.1858623347E+00       4    7    1        -0.9976409416E+01      0.2451522658E+02
          0                 4           2             4    7     1       0.1663074156E+00       4    7    1         0.9176292928E+01      0.2247789911E+02
          0                 5           2             4    7     1      -0.6651433591E-02       5    8    1        -0.3773905045E+00      0.9243362334E+00
          0                 6           1             4    7     1       0.8207566724E-04       5    8    1         0.4787522355E-02      0.1173117738E-01

    ------------------------------------------------
       NWT REQUIRED            6 OUTER ITERATIONS 
       AND A TOTAL OF         11 INNER ITERATIONS.
    ------------------------------------------------

 NO OUTPUT CONTROL FOR STRESS PERIOD    8   TIME STEP   25
 
 SOLVING FOR HEAD 
                                                   Max.-Head-Change                         Max.-Flux-Residual
  Residual-Control   Outer-Iter.   Inner-Iter.     Column Row Layer    Maximum-Head-Change  Column Row Layer    Maximum-Flux-Residual          L2-NORM 
          0                 1           2             4   13     1       0.1847473167E-01       4   13    1         0.1065843020E+01      0.2596430951E+01
          0                 2           2             7   13     1      -0.3712662447E-02       7   13    1        -0.2059036453E+00      0.3261062736E+00
          0                 3           2             4    7     1      -0.1858625960E+00       4    7    1        -0.9976419191E+01      0.2451533305E+02
          0                 4           2             4    7     1       0.1663074986E+00       4    7    1         0.9176293617E+01      0.2247789919E+02
          0                 5           2             4    7     1      -0.6651436909E-02       5    8    1        -0.3773905209E+00      0.9243361011E+00
          0                 6           1             4    7     1       0.8207570869E-04       5    8    1         0.4787522528E-02      0.1173114996E-01

    ------------------------------------------------
       NWT REQUIRED            6 OUTER ITERATIONS 
       AND A TOTAL OF         11 INNER ITERATIONS.
    ------------------------------------------------

 NO OUTPUT CONTROL FOR STRESS PERIOD    8   TIME STEP   26
 
 SOLVING FOR HEAD 
                                                   Max.-Head-Change                         Max.-Flux-Residual
  Residual-Control   Outer-Iter.   Inner-Iter.     Column Row Layer    Maximum-Head-Change  Column Row Layer    Maximum-Flux-Residual          L2-NORM 
          0                 1           2             4   13     1       0.1858173964E-01       4   13    1         0.1071974623E+01      0.2625367780E+01
          0                 2           2             7   13     1      -0.3720603176E-02       7   13    1        -0.2063427823E+00      0.3286245910E+00
          0                 3           2             4    7     1      -0.1858628480E+00       4    7    1        -0.9976428413E+01      0.2451543651E+02
          0                 4           2             4    7     1       0.1663075853E+00       4    7    1         0.9176294506E+01      0.2247790006E+02
          0                 5           2             4    7     1      -0.6651438271E-02       5    8    1        -0.3773904330E+00      0.9243357407E+00
          0                 6           1             4    7     1       0.8207572549E-04       5    8    1         0.4787521374E-02      0.1173113241E-01

    ------------------------------------------------
       NWT REQUIRED            6 OUTER ITERATIONS 
       AND A TOTAL OF         11 INNER ITERATIONS.
    ------------------------------------------------

 NO OUTPUT CONTROL FOR STRESS PERIOD    8   TIME STEP   27
 
 SOLVING FOR HEAD 
                                                   Max.-Head-Change                         Max.-Flux-Residual
  Residual-Control   Outer-Iter.   Inner-Iter.     Column Row Layer    Maximum-Head-Change  Column Row Layer    Maximum-Flux-Residual          L2-NORM 
          0                 1           2             4   13     1       0.1867985661E-01       4   13    1         0.1077593650E+01      0.2653111449E+01
          0                 2           2             7   13     1      -0.3728315617E-02       7   13    1        -0.2067692537E+00      0.3310529563E+00
          0                 3           2             4    7     1      -0.1858630720E+00       4    7    1        -0.9976436075E+01      0.2451553480E+02
          0                 4           2             4    7     1       0.1663076615E+00       4    7    1         0.9176294808E+01      0.2247789977E+02
          0                 5           2             4    7     1      -0.6651443417E-02       5    8    1        -0.3773905658E+00      0.9243358910E+00
          0                 6           1             4    7     1       0.8207578911E-04       5    8    1         0.4787523018E-02      0.1173110739E-01

    ------------------------------------------------
       NWT REQUIRED            6 OUTER ITERATIONS 
       AND A TOTAL OF         11 INNER ITERATIONS.
    ------------------------------------------------

 NO OUTPUT CONTROL FOR STRESS PERIOD    8   TIME STEP   28
 
 SOLVING FOR HEAD 
                                                   Max.-Head-Change                         Max.-Flux-Residual
  Residual-Control   Outer-Iter.   Inner-Iter.     Column Row Layer    Maximum-Head-Change  Column Row Layer    Maximum-Flux-Residual          L2-NORM 
          0                 1           2             4   13     1       0.1876978710E-01       4   13    1         0.1082740823E+01      0.2679732381E+01
          0                 2           2             7   13     1      -0.3735835892E-02       7   13    1        -0.2071850873E+00      0.3333932046E+00
          0                 3           2             4    7     1      -0.1858632883E+00       4    7    1        -0.9976443289E+01      0.2451562891E+02
          0                 4           2             4    7     1       0.1663077413E+00       4    7    1         0.9176295318E+01      0.2247790012E+02
          0                 5           2             4    7     1      -0.6651446607E-02       5    8    1        -0.3773905931E+00      0.9243357879E+00
          0                 6           1             4    7     1       0.8207582787E-04       5    8    1         0.4787523321E-02      0.1173109440E-01

    ------------------------------------------------
       NWT REQUIRED            6 OUTER ITERATIONS 
       AND A TOTAL OF         11 INNER ITERATIONS.
    ------------------------------------------------

 NO OUTPUT CONTROL FOR STRESS PERIOD    8   TIME STEP   29
 
 SOLVING FOR HEAD 
                                                   Max.-Head-Change                         Max.-Flux-Residual
  Residual-Control   Outer-Iter.   Inner-Iter.     Column Row Layer    Maximum-Head-Change  Column Row Layer    Maximum-Flux-Residual          L2-NORM 
          0                 1           2             4   13     1       0.1885238395E-01       4   13    1         0.1087465493E+01      0.2705278105E+01
          0                 2           2             7   13     1      -0.3743174582E-02       7   13    1        -0.2075908653E+00      0.3356494251E+00
          0                 3           2             4    7     1      -0.1858635155E+00       4    7    1        -0.9976451049E+01      0.2451572322E+02
          0                 4           2             4    7     1       0.1663078325E+00       4    7    1         0.9176296462E+01      0.2247790226E+02
          0                 5           2             4    7     1      -0.6651448149E-02       5    8    1        -0.3773905327E+00      0.9243354767E+00
          0                 6           1             4    7     1       0.8207584714E-04       5    8    1         0.4787522523E-02      0.1173106271E-01

    ------------------------------------------------
       NWT REQUIRED            6 OUTER ITERATIONS 
       AND A TOTAL OF         11 INNER ITERATIONS.
    ------------------------------------------------

 NO OUTPUT CONTROL FOR STRESS PERIOD    8   TIME STEP   30



 STREAM LISTING     PERIOD      8   STEP       30

 LAYER ROW COL. STREAM  RCH.  FLOW INTO     FLOW TO   FLOW OUT OF   OVRLND.     DIRECT     STREAM       STREAM     STREAM     STREAM   STREAMBED  STREAMBED
                SEG.NO.  NO.  STRM. RCH.    AQUIFER    STRM. RCH.    RUNOFF     PRECIP       ET          HEAD       DEPTH      WIDTH   CONDCTNC.   GRADIENT

   1    1    1     1     1    5.6250E+01  3.5874E-01   5.5891E+01  0.000E+00  0.000E+00  0.000E+00  1.09453E+03  1.479E+00  1.780E+01  8.010E-02  1.493E+00
   1    2    2     1     2    5.5891E+01  5.5550E-01   5.5335E+01  0.000E+00  0.000E+00  0.000E+00  1.08953E+03  1.473E+00  1.774E+01  1.242E-01  1.491E+00
   1    3    3     1     3    5.5335E+01  4.7368E-01   5.4862E+01  0.000E+00  0.000E+00  0.000E+00  1.08389E+03  1.467E+00  1.767E+01  1.060E-01  1.489E+00
   1    3    4     1     4    5.4862E+01  4.3613E-01   5.4426E+01  0.000E+00  0.000E+00  0.000E+00  1.07887E+03  1.461E+00  1.762E+01  9.777E-02  1.487E+00
   1    4    5     2     1    5.2426E+01  3.8056E-01   5.2045E+01  0.000E+00  0.000E+00  0.000E+00  1.07381E+03  1.879E+00  1.200E+01  7.800E-02  1.626E+00
   1    5    6     2     2    5.2045E+01  2.9230E-01   5.1753E+01  0.000E+00  0.000E+00  0.000E+00  1.06838E+03  1.872E+00  1.200E+01  6.000E-02  1.624E+00
   1    6    6     2     3    5.1753E+01  2.9192E-01   5.1461E+01  0.000E+00  0.000E+00  0.000E+00  1.06366E+03  1.865E+00  1.200E+01  6.000E-02  1.622E+00
   1    7    6     2     4    5.1461E+01  2.9154E-01   5.1169E+01  0.000E+00  0.000E+00  0.000E+00  1.05893E+03  1.859E+00  1.200E+01  6.000E-02  1.620E+00
   1    8    6     2     5    5.1169E+01  2.9116E-01   5.0878E+01  0.000E+00  0.000E+00  0.000E+00  1.05421E+03  1.853E+00  1.200E+01  6.000E-02  1.618E+00
   1    3    5     3     1    2.0000E+00  2.8252E-01   1.7175E+00  0.000E+00  0.000E+00  0.000E+00  1.07555E+03  1.909E+00  9.636E+00  7.227E-02  1.955E+00
   1    3    6     3     2    1.7175E+00  2.4905E-01   1.4684E+00  0.000E+00  0.000E+00  0.000E+00  1.07264E+03  1.727E+00  8.909E+00  6.682E-02  1.864E+00
   1    3    7     3     3    1.4684E+00  1.9718E-01   1.2712E+00  0.000E+00  0.000E+00  0.000E+00  1.06987E+03  1.555E+00  8.218E+00  5.547E-02  1.777E+00
   1    4    8     3     4    1.2712E+00  2.2567E-01   1.0456E+00  0.000E+00  0.000E+00  0.000E+00  1.06682E+03  1.364E+00  7.455E+00  6.709E-02  1.682E+00
   1    5    8     3     5    1.0456E+00  1.5790E-01   8.8768E-01  0.000E+00  0.000E+00  0.000E+00  1.06362E+03  1.164E+00  6.655E+00  4.991E-02  1.582E+00
   1    6    8     3     6    8.8768E-01  5.5980E-02   8.3170E-01  0.000E+00  0.000E+00  0.000E+00  1.06158E+03  1.036E+00  6.145E+00  1.844E-02  1.518E+00
   1    5   10     4     1    1.0000E+01  9.0919E-02   9.9091E+00  0.000E+00  0.000E+00  0.000E+00  1.07836E+03  6.368E-01  1.000E+01  2.500E-02  1.212E+00
   1    5    9     4     2    9.9091E+00  1.8158E-01   9.7275E+00  0.000E+00  0.000E+00  0.000E+00  1.07154E+03  6.315E-01  1.000E+01  5.000E-02  1.211E+00
   1    6    8     4     3    9.7275E+00  1.2689E-01   9.6006E+00  0.000E+00  0.000E+00  0.000E+00  1.06381E+03  6.256E-01  1.000E+01  3.500E-02  1.209E+00
   1    6    8     5     1    1.0432E+01  2.2686E-01   1.0205E+01  0.000E+00  0.000E+00  0.000E+00  1.05868E+03  6.790E-01  1.542E+01  6.166E-02  1.226E+00
   1    7    7     5     2    1.0205E+01  2.7894E-01   9.9265E+00  0.000E+00  0.000E+00  0.000E+00  1.05417E+03  6.732E-01  1.519E+01  7.594E-02  1.224E+00
   1    8    7     5     3    9.9265E+00  1.9221E-01   9.7343E+00  0.000E+00  0.000E+00  0.000E+00  1.04992E+03  6.676E-01  1.497E+01  5.241E-02  1.223E+00
   1    8    6     5     4    9.7343E+00  1.3577E-01   9.5985E+00  0.000E+00  0.000E+00  0.000E+00  1.04691E+03  6.637E-01  1.482E+01  3.706E-02  1.221E+00
   1    9    6     6     1    9.5985E+00  2.2097E-01   9.3776E+00  0.000E+00  0.000E+00  0.000E+00  1.04341E+03  6.828E-01  1.200E+01  6.000E-02  1.228E+00
   1   10    7     6     2    9.3776E+00  2.2039E-01   9.1572E+00  0.000E+00  0.000E+00  0.000E+00  1.03885E+03  6.732E-01  1.200E+01  6.000E-02  1.224E+00
   1   11    7     6     3    9.1572E+00  2.1981E-01   8.9374E+00  0.000E+00  0.000E+00  0.000E+00  1.03430E+03  6.636E-01  1.200E+01  6.000E-02  1.221E+00
   1   12    7     6     4    8.9374E+00  2.1923E-01   8.7181E+00  0.000E+00  0.000E+00  0.000E+00  1.02974E+03  6.539E-01  1.200E+01  6.000E-02  1.218E+00
   1   13    7     6     5    8.7181E+00 -1.3238E-01   8.8505E+00  0.000E+00  0.000E+00  0.000E+00  1.02656E+03  6.519E-01  1.200E+01  2.400E-01 -1.839E-01
   1   14    9     7     1    1.5000E+02  1.3358E+00   1.4866E+02  0.000E+00  0.000E+00  0.000E+00  1.03987E+03  2.288E+00  5.529E+01  5.593E-01  7.961E-01
   1   13    8     7     2    1.4866E+02  1.8197E+00   1.4684E+02  0.000E+00  0.000E+00  0.000E+00  1.03478E+03  2.279E+00  5.526E+01  6.148E-01  9.867E-01
   1   13    7     7     3    1.4684E+02  1.4394E+00   1.4541E+02  0.000E+00  0.000E+00  0.000E+00  1.02969E+03  2.271E+00  5.522E+01  5.585E-01  8.591E-01
   1   13    6     8     1    1.5426E+02  7.9265E-01   1.5346E+02  0.000E+00  0.000E+00  0.000E+00  1.02472E+03  2.844E+00  4.124E+01  4.202E-01  6.288E-01
   1   13    5     8     2    1.5346E+02  7.0216E-02   1.5339E+02  0.000E+00  0.000E+00  0.000E+00  1.01847E+03  2.841E+00  4.119E+01  4.198E-01  5.576E-02
   1   13    4     8     3    1.5339E+02 -2.7801E+00   1.5617E+02  0.000E+00  0.000E+00  0.000E+00  1.01223E+03  2.850E+00  4.133E+01  4.211E+00 -2.200E-01
   1   13    3     8     4    1.5617E+02 -3.8377E+00   1.6001E+02  0.000E+00  0.000E+00  0.000E+00  1.00600E+03  2.873E+00  4.166E+01  4.245E+00 -3.014E-01
   1   13    2     8     5    1.6001E+02 -2.6948E+00   1.6271E+02  0.000E+00  0.000E+00  0.000E+00  9.99770E+02  2.895E+00  4.198E+01  4.278E+00 -2.100E-01
   1   13    1     8     6    1.6271E+02 -2.0919E+00   1.6480E+02  0.000E+00  0.000E+00  0.000E+00  9.94786E+02  2.911E+00  4.221E+01  2.581E+00 -2.702E-01
   1    8    6     9     1    5.0878E+01  0.0000E+00   5.0878E+01  0.000E+00  0.000E+00  0.000E+00  1.08476E+03  6.014E+00  4.000E+00  0.000E+00  3.005E+00
   1    8    5     9     2    5.0878E+01  0.0000E+00   5.0878E+01  0.000E+00  0.000E+00  0.000E+00  1.08426E+03  6.014E+00  4.000E+00  0.000E+00  3.005E+00





UNSATURATED ZONE PACKAGE VOLUMETRIC BUDGET FOR  TIME STEP    30 STRESS PERIOD    8
  ------------------------------------------------------------------------------



     CUMULATIVE VOLUMES      L**3       RATES FOR THIS TIME STEP      L**3/T
     ------------------                 ------------------------

           IN:                                      IN:
           ---                                      ---
        INFILTRATION =   302190143.9632          INFILTRATION =          60.7643

          OUT:                                     OUT:
          ----                                     ----
              UZF ET =   261761497.5022                UZF ET =          60.8175
        UZF RECHARGE =       73224.0000          UZF RECHARGE =       0.0000E+00

            IN - OUT =    40355422.4610              IN - OUT =      -5.3169E-02

          STORAGE:                                 STORAGE:
          --------                                 --------
      STORAGE CHANGE =    40371027.2964        STORAGE CHANGE =      -5.3167E-02

 PERCENT DISCREPANCY IS DIFFERENCE BETWEEN IN-OUT MINUS CHANGE IN STORAGE
 DIVIDED BY THE AVERAGE OF IN AND OUT TIMES 100

 PERCENT DISCREPANCY =          -0.00     PERCENT DISCREPANCY =          -0.00






1
  VOLUMETRIC BUDGET FOR AGRICULTURAL FIELDS AT  END OF TIME STEP   30, STRESS PERIOD   8
  ------------------------------------------------------------------------------

     CUMULATIVE VOLUMES      L**3       RATES FOR THIS TIME STEP      L**3/T
     ------------------                 ------------------------

           IN:                                      IN:
           ---                                      ---
           AG WELLS      =    65882968.0000             AG WELLS      =           9.0378
      DIVERSION SEGMENTS =   220630560.0000        DIVERSION SEGMENTS =          50.8780
           GW IRRIGATION =           0.0000             GW IRRIGATION =           0.0000
           SW IRRIGATION =           0.0000             SW IRRIGATION =           0.0000
        SYSTEM LOSSES GW =           0.0000          SYSTEM LOSSES GW =           0.0000
        SYSTEM LOSSES SW =           0.0000          SYSTEM LOSSES SW =           0.0000

                TOTAL IN =   286513536.0000                  TOTAL IN =          59.9158

          OUT:                                     OUT:
          ----                                     ----
           AG WELLS      =           0.0000             AG WELLS      =           0.0000
      DIVERSION SEGMENTS =           0.0000        DIVERSION SEGMENTS =           0.0000
           GW IRRIGATION =    65882968.0000             GW IRRIGATION =           9.0378
           SW IRRIGATION =   220635088.0000             SW IRRIGATION =          50.8790
        SYSTEM LOSSES GW =           0.0000          SYSTEM LOSSES GW =           0.0000
        SYSTEM LOSSES SW =           0.0000          SYSTEM LOSSES SW =           0.0000

               TOTAL OUT =   286518048.0000                 TOTAL OUT =          59.9168

                IN - OUT =       -4512.0000                  IN - OUT =      -1.0185E-03

     PERCENT DISCREPANCY =          -0.00         PERCENT DISCREPANCY =          -0.00



1
  VOLUMETRIC BUDGET FOR ENTIRE MODEL AT END OF TIME STEP   30, STRESS PERIOD   8
  ------------------------------------------------------------------------------

     CUMULATIVE VOLUMES      L**3       RATES FOR THIS TIME STEP      L**3/T
     ------------------                 ------------------------

           IN:                                      IN:
           ---                                      ---
             STORAGE     =   100150208.0000               STORAGE     =           9.3854
       CONSTANT HEAD     =           0.0000         CONSTANT HEAD     =           0.0000
     HEAD DEP BOUNDS     =     5284902.5000       HEAD DEP BOUNDS     =           0.2858
      STREAM LEAKAGE     =   226194384.0000        STREAM LEAKAGE     =          12.1112
        UZF RECHARGE     =       73223.9531          UZF RECHARGE     =           0.0000
               GW ET     =           0.0000                 GW ET     =           0.0000
     SURFACE LEAKAGE     =           0.0000       SURFACE LEAKAGE     =           0.0000
           AG WELLS      =           0.0000             AG WELLS      =           0.0000

                TOTAL IN =   331702720.0000                  TOTAL IN =          21.7824

          OUT:                                     OUT:
          ----                                     ----
             STORAGE     =    59807876.0000               STORAGE     =           0.9186
       CONSTANT HEAD     =           0.0000         CONSTANT HEAD     =           0.0000
     HEAD DEP BOUNDS     =     5397030.5000       HEAD DEP BOUNDS     =           0.2887
      STREAM LEAKAGE     =   199082528.0000        STREAM LEAKAGE     =          11.5368
        UZF RECHARGE     =           0.0000          UZF RECHARGE     =           0.0000
               GW ET     =     1534490.7500                 GW ET     =           0.0000
     SURFACE LEAKAGE     =           0.0000       SURFACE LEAKAGE     =           0.0000
           AG WELLS      =    65882968.0000             AG WELLS      =           9.0378

               TOTAL OUT =   331704896.0000                 TOTAL OUT =          21.7819

                IN - OUT =       -2176.0000                  IN - OUT =       4.2343E-04

     PERCENT DISCREPANCY =          -0.00         PERCENT DISCREPANCY =           0.00






         TIME SUMMARY AT END OF TIME STEP   30 IN STRESS PERIOD    8
                    SECONDS     MINUTES      HOURS       DAYS        YEARS
                    -----------------------------------------------------------
   TIME STEP LENGTH  87667.      1461.1      24.352      1.0147     2.77799E-03
 STRESS PERIOD TIME 2.63000E+06  43833.      730.56      30.440     8.33397E-02
         TOTAL TIME 1.84964E+07 3.08274E+05  5137.9      214.08     0.58612    
1
1
                            STRESS PERIOD NO.    9, LENGTH =   2630000.    
                            -----------------------------------------------

                              NUMBER OF TIME STEPS =    30

                               MULTIPLIER FOR DELT =     1.000

                            INITIAL TIME STEP SIZE =   87666.66    

 REUSING NON-PARAMETER GHB CELLS FROM LAST STRESS PERIOD

      2 GHB CELLS

 REUSING STREAM SEGMENT DATA FROM LAST STRESS PERIOD



            AREAL INFILTRATION RATE
 READING ON UNIT   19 WITH FORMAT: (FREE)              

            1           2           3           4           5           6           7           8           9          10
 ........................................................................................................................
   1   1.0000E-10  2.0000E-10   0.000       0.000       0.000       0.000       0.000       0.000       0.000       0.000    
   2   2.0000E-10  1.0000E-10  2.0000E-10   0.000       0.000      8.0000E-10  8.0000E-10  5.0000E-10   0.000       0.000    
   3    0.000      5.0000E-10  1.0000E-10  1.0000E-10  8.0000E-10  8.0000E-10  5.0000E-10  5.0000E-10   0.000       0.000    
   4   8.0000E-10  5.0000E-10  1.0000E-10  1.0000E-10  1.0000E-10  1.0000E-10  1.0000E-10  1.0000E-10  2.0000E-10   0.000    
   5   8.0000E-10  5.0000E-10  1.0000E-10  1.0000E-10  1.0000E-10  1.0000E-10  1.0000E-10  1.0000E-10  1.0000E-10  1.0000E-10
   6   8.0000E-10  5.0000E-10  5.0000E-10  2.0000E-10  2.0000E-10  1.0000E-10  1.0000E-10  1.0000E-10  1.0000E-10  5.0000E-10
   7   8.0000E-10  5.0000E-10  5.0000E-10  2.0000E-10  2.0000E-10  1.0000E-10  1.0000E-10  2.0000E-10  2.0000E-10   0.000    
   8    0.000      5.0000E-10  5.0000E-10  2.0000E-10  2.0000E-10  1.0000E-10  1.0000E-10  2.0000E-10  5.0000E-10   0.000    
   9    0.000      5.0000E-10  5.0000E-10  2.0000E-10  2.0000E-10  1.0000E-10  1.0000E-10  2.0000E-10  5.0000E-10   0.000    
  10    0.000      5.0000E-10  5.0000E-10  2.0000E-10  2.0000E-10  1.0000E-10  1.0000E-10  2.0000E-10  5.0000E-10  8.0000E-10
  11    0.000      1.0000E-10  1.0000E-10  1.0000E-10  1.0000E-10  1.0000E-10  1.0000E-10  2.0000E-10  5.0000E-10   0.000    
  12   1.0000E-10  1.0000E-10  1.0000E-10  1.0000E-10  1.0000E-10  1.0000E-10  1.0000E-10  1.0000E-10  2.0000E-10   0.000    
  13   1.0000E-10  1.0000E-10  2.0000E-10  2.0000E-10  2.0000E-10  2.0000E-10  2.0000E-10  1.0000E-10  1.0000E-10   0.000    
  14    0.000      2.0000E-10  5.0000E-10  5.0000E-10  5.0000E-10  5.0000E-10  5.0000E-10  2.0000E-10  1.0000E-10   0.000    
  15    0.000       0.000      8.0000E-10  8.0000E-10  8.0000E-10  8.0000E-10   0.000       0.000       0.000       0.000    

                  ET RATE =  3.250000E-07

 USING ET EXTINCTION DEPTH FROM PREVIOUS STRESS PERIOD. CURRENT PERIOD IS:       9

 USING EXTINCTION WATER CONTENT FROM PREVIOUS STRESS PERIOD. CURRENT PERIOD IS:       9

 USING AIR ENTRY PRESSURE FROM PREVIOUS STRESS PERIOD. CURRENT PERIOD IS:       9

 USING ROOT PRESSURE HEAD FROM PREVIOUS STRESS PERIOD. CURRENT PERIOD IS:       9

 USING ROOT ACTIVITY FROM PREVIOUS STRESS PERIOD. CURRENT PERIOD IS:       9

 PROCESSING AG STRESS PERIOD DATA

 READING AG STRESS PERIOD DATA

 READING IRRIGATION SEGMENT

 READING IRRIGATION WELL

 READING SUPPLEMENTAL WELL

 END PROCESSING AG STRESS PERIOD DATA OPTIONS
 
 SOLVING FOR HEAD 
                                                   Max.-Head-Change                         Max.-Flux-Residual
  Residual-Control   Outer-Iter.   Inner-Iter.     Column Row Layer    Maximum-Head-Change  Column Row Layer    Maximum-Flux-Residual          L2-NORM 
          0                 1           2             5    6     1       0.1552483586E-01       5    6    1         0.8410353543E+00      0.2007075352E+01
          0                 2           2             4    7     1      -0.2497064409E-01       5    6    1        -0.1366985478E+01      0.3323051660E+01
          0                 3           2             4    7     1       0.1700405197E-02       5    6    1         0.9568886621E-01      0.2326120645E+00
          0                 4           1             4    7     1      -0.6766072882E-04       5    6    1        -0.3913680810E-02      0.9513838811E-02

    ------------------------------------------------
       NWT REQUIRED            4 OUTER ITERATIONS 
       AND A TOTAL OF          7 INNER ITERATIONS.
    ------------------------------------------------

 NO OUTPUT CONTROL FOR STRESS PERIOD    9   TIME STEP    1
 
 SOLVING FOR HEAD 
                                                   Max.-Head-Change                         Max.-Flux-Residual
  Residual-Control   Outer-Iter.   Inner-Iter.     Column Row Layer    Maximum-Head-Change  Column Row Layer    Maximum-Flux-Residual          L2-NORM 
          0                 1           2             5    6     1       0.1556639016E-01       4   13    1         0.8569824953E+00      0.2474585433E+01
          0                 2           2             7   13     1      -0.2813280631E-02       7   13    1        -0.1560334752E+00      0.2899289496E+00
          0                 3           2             4    7     1      -0.1509338307E+00       4    7    1        -0.8101556506E+01      0.1990517448E+02
          0                 4           2             4    7     1       0.1329843551E+00       4    7    1         0.7337619158E+01      0.1797406316E+02
          0                 5           2             4    7     1      -0.5323944972E-02       5    8    1        -0.3020619745E+00      0.7398641501E+00
          0                 6           1             4    7     1       0.6569510664E-04       5    8    1         0.3831935474E-02      0.9391850664E-02

    ------------------------------------------------
       NWT REQUIRED            6 OUTER ITERATIONS 
       AND A TOTAL OF         11 INNER ITERATIONS.
    ------------------------------------------------

 NO OUTPUT CONTROL FOR STRESS PERIOD    9   TIME STEP    2
 
 SOLVING FOR HEAD 
                                                   Max.-Head-Change                         Max.-Flux-Residual
  Residual-Control   Outer-Iter.   Inner-Iter.     Column Row Layer    Maximum-Head-Change  Column Row Layer    Maximum-Flux-Residual          L2-NORM 
          0                 1           2             5    6     1       0.1563755634E-01       4   13    1         0.8605688005E+00      0.2490633589E+01
          0                 2           2             7   13     1      -0.2820056405E-02       7   13    1        -0.1564080913E+00      0.2914637374E+00
          0                 3           2             4    7     1      -0.1509344145E+00       4    7    1        -0.8101583876E+01      0.1990533600E+02
          0                 4           2             4    7     1       0.1329844423E+00       4    7    1         0.7337621077E+01      0.1797406997E+02
          0                 5           2             4    7     1      -0.5323948454E-02       5    8    1        -0.3020621531E+00      0.7398643035E+00
          0                 6           1             4    7     1       0.6569514943E-04       5    8    1         0.3831937694E-02      0.9391827304E-02

    ------------------------------------------------
       NWT REQUIRED            6 OUTER ITERATIONS 
       AND A TOTAL OF         11 INNER ITERATIONS.
    ------------------------------------------------

 NO OUTPUT CONTROL FOR STRESS PERIOD    9   TIME STEP    3
 
 SOLVING FOR HEAD 
                                                   Max.-Head-Change                         Max.-Flux-Residual
  Residual-Control   Outer-Iter.   Inner-Iter.     Column Row Layer    Maximum-Head-Change  Column Row Layer    Maximum-Flux-Residual          L2-NORM 
          0                 1           2             5    6     1       0.1570821522E-01       4   13    1         0.8638600381E+00      0.2506160236E+01
          0                 2           2             7   13     1      -0.2826656781E-02       7   13    1        -0.1567730135E+00      0.2929516033E+00
          0                 3           2             4    7     1      -0.1509349833E+00       4    7    1        -0.8101610484E+01      0.1990549210E+02
          0                 4           2             4    7     1       0.1329845280E+00       4    7    1         0.7337622943E+01      0.1797407659E+02
          0                 5           2             4    7     1      -0.5323951874E-02       5    8    1        -0.3020623264E+00      0.7398644396E+00
          0                 6           1             4    7     1       0.6569519132E-04       5    8    1         0.3831939853E-02      0.9391804467E-02

    ------------------------------------------------
       NWT REQUIRED            6 OUTER ITERATIONS 
       AND A TOTAL OF         11 INNER ITERATIONS.
    ------------------------------------------------

 NO OUTPUT CONTROL FOR STRESS PERIOD    9   TIME STEP    4
 
 SOLVING FOR HEAD 
                                                   Max.-Head-Change                         Max.-Flux-Residual
  Residual-Control   Outer-Iter.   Inner-Iter.     Column Row Layer    Maximum-Head-Change  Column Row Layer    Maximum-Flux-Residual          L2-NORM 
          0                 1           2             5    6     1       0.1577832371E-01       4   13    1         0.8668902679E+00      0.2521186629E+01
          0                 2           2             7   13     1      -0.2833090599E-02       7   13    1        -0.1571287128E+00      0.2943955198E+00
          0                 3           2             4    7     1      -0.1509355525E+00       4    7    1        -0.8101637160E+01      0.1990564499E+02
          0                 4           2             4    7     1       0.1329846174E+00       4    7    1         0.7337625051E+01      0.1797408378E+02
          0                 5           2             4    7     1      -0.5323955446E-02       5    8    1        -0.3020625070E+00      0.7398646169E+00
          0                 6           1             4    7     1       0.6569523568E-04       5    8    1         0.3831942123E-02      0.9391790415E-02

    ------------------------------------------------
       NWT REQUIRED            6 OUTER ITERATIONS 
       AND A TOTAL OF         11 INNER ITERATIONS.
    ------------------------------------------------

 NO OUTPUT CONTROL FOR STRESS PERIOD    9   TIME STEP    5
 
 SOLVING FOR HEAD 
                                                   Max.-Head-Change                         Max.-Flux-Residual
  Residual-Control   Outer-Iter.   Inner-Iter.     Column Row Layer    Maximum-Head-Change  Column Row Layer    Maximum-Flux-Residual          L2-NORM 
          0                 1           2             5    6     1       0.1584753784E-01       4   13    1         0.8696815193E+00      0.2535743992E+01
          0                 2           2             7   13     1      -0.2839359800E-02       7   13    1        -0.1574752880E+00      0.2957974631E+00
          0                 3           2             4    7     1      -0.1509361078E+00       4    7    1        -0.8101663143E+01      0.1990579271E+02
          0                 4           2             4    7     1       0.1329846967E+00       4    7    1         0.7337626634E+01      0.1797408963E+02
          0                 5           2             4    7     1      -0.5323958612E-02       5    8    1        -0.3020626629E+00      0.7398647470E+00
          0                 6           1             4    7     1       0.6569527466E-04       5    8    1         0.3831944043E-02      0.9391778178E-02

    ------------------------------------------------
       NWT REQUIRED            6 OUTER ITERATIONS 
       AND A TOTAL OF         11 INNER ITERATIONS.
    ------------------------------------------------

 NO OUTPUT CONTROL FOR STRESS PERIOD    9   TIME STEP    6
 
 SOLVING FOR HEAD 
                                                   Max.-Head-Change                         Max.-Flux-Residual
  Residual-Control   Outer-Iter.   Inner-Iter.     Column Row Layer    Maximum-Head-Change  Column Row Layer    Maximum-Flux-Residual          L2-NORM 
          0                 1           2             5    6     1       0.1591585967E-01       4   13    1         0.8722501508E+00      0.2549851567E+01
          0                 2           2             7   13     1      -0.2845492778E-02       7   13    1        -0.1578143340E+00      0.2971590469E+00
          0                 3           2             4    7     1      -0.1509366628E+00       4    7    1        -0.8101689154E+01      0.1990593758E+02
          0                 4           2             4    7     1       0.1329847798E+00       4    7    1         0.7337628458E+01      0.1797409599E+02
          0                 5           2             4    7     1      -0.5323961930E-02       5    8    1        -0.3020628262E+00      0.7398648730E+00
          0                 6           1             4    7     1       0.6569531544E-04       5    8    1         0.3831946083E-02      0.9391751847E-02

    ------------------------------------------------
       NWT REQUIRED            6 OUTER ITERATIONS 
       AND A TOTAL OF         11 INNER ITERATIONS.
    ------------------------------------------------

 NO OUTPUT CONTROL FOR STRESS PERIOD    9   TIME STEP    7
 
 SOLVING FOR HEAD 
                                                   Max.-Head-Change                         Max.-Flux-Residual
  Residual-Control   Outer-Iter.   Inner-Iter.     Column Row Layer    Maximum-Head-Change  Column Row Layer    Maximum-Flux-Residual          L2-NORM 
          0                 1           2             5    6     1       0.1598357317E-01       4   13    1         0.8746229234E+00      0.2563543465E+01
          0                 2           2             7   13     1      -0.2851460514E-02       7   13    1        -0.1581442272E+00      0.2984845427E+00
          0                 3           2             4    7     1      -0.1509372011E+00       4    7    1        -0.8101714323E+01      0.1990607729E+02
          0                 4           2             4    7     1       0.1329848612E+00       4    7    1         0.7337630222E+01      0.1797410221E+02
          0                 5           2             4    7     1      -0.5323965181E-02       5    8    1        -0.3020629843E+00      0.7398650340E+00
          0                 6           1             4    7     1       0.6569535554E-04       5    8    1         0.3831948062E-02      0.9391741125E-02

    ------------------------------------------------
       NWT REQUIRED            6 OUTER ITERATIONS 
       AND A TOTAL OF         11 INNER ITERATIONS.
    ------------------------------------------------

 NO OUTPUT CONTROL FOR STRESS PERIOD    9   TIME STEP    8
 
 SOLVING FOR HEAD 
                                                   Max.-Head-Change                         Max.-Flux-Residual
  Residual-Control   Outer-Iter.   Inner-Iter.     Column Row Layer    Maximum-Head-Change  Column Row Layer    Maximum-Flux-Residual          L2-NORM 
          0                 1           2             5    6     1       0.1605064776E-01       4   13    1         0.8768174824E+00      0.2576840595E+01
          0                 2           2             7   13     1      -0.2857304684E-02       7   13    1        -0.1584672819E+00      0.2997743465E+00
          0                 3           2             4    7     1      -0.1509377403E+00       4    7    1        -0.8101739583E+01      0.1990621436E+02
          0                 4           2             4    7     1       0.1329849464E+00       4    7    1         0.7337632232E+01      0.1797410894E+02
          0                 5           2             4    7     1      -0.5323968585E-02       5    8    1        -0.3020631498E+00      0.7398651932E+00
          0                 6           1             4    7     1       0.6569539766E-04       5    8    1         0.3831950137E-02      0.9391721219E-02

    ------------------------------------------------
       NWT REQUIRED            6 OUTER ITERATIONS 
       AND A TOTAL OF         11 INNER ITERATIONS.
    ------------------------------------------------

 NO OUTPUT CONTROL FOR STRESS PERIOD    9   TIME STEP    9
 
 SOLVING FOR HEAD 
                                                   Max.-Head-Change                         Max.-Flux-Residual
  Residual-Control   Outer-Iter.   Inner-Iter.     Column Row Layer    Maximum-Head-Change  Column Row Layer    Maximum-Flux-Residual          L2-NORM 
          0                 1           2             5    6     1       0.1611677061E-01       4   13    1         0.8788385132E+00      0.2589748649E+01
          0                 2           2             7   13     1      -0.2862995722E-02       7   13    1        -0.1587818676E+00      0.3010277587E+00
          0                 3           2             4    7     1      -0.1509382798E+00       4    7    1        -0.8101764913E+01      0.1990634899E+02
          0                 4           2             4    7     1       0.1329850269E+00       4    7    1         0.7337634007E+01      0.1797411506E+02
          0                 5           2             4    7     1      -0.5323971798E-02       5    8    1        -0.3020633035E+00      0.7398653358E+00
          0                 6           1             4    7     1       0.6569543709E-04       5    8    1         0.3831952038E-02      0.9391702737E-02

    ------------------------------------------------
       NWT REQUIRED            6 OUTER ITERATIONS 
       AND A TOTAL OF         11 INNER ITERATIONS.
    ------------------------------------------------

 NO OUTPUT CONTROL FOR STRESS PERIOD    9   TIME STEP   10
 
 SOLVING FOR HEAD 
                                                   Max.-Head-Change                         Max.-Flux-Residual
  Residual-Control   Outer-Iter.   Inner-Iter.     Column Row Layer    Maximum-Head-Change  Column Row Layer    Maximum-Flux-Residual          L2-NORM 
          0                 1           2             5    6     1       0.1618224675E-01       4   13    1         0.8807174202E+00      0.2602300047E+01
          0                 2           2             7   13     1      -0.2868550163E-02       7   13    1        -0.1590888858E+00      0.3022500748E+00
          0                 3           2             4    7     1      -0.1509387997E+00       4    7    1        -0.8101789231E+01      0.1990647870E+02
          0                 4           2             4    7     1       0.1329851056E+00       4    7    1         0.7337635712E+01      0.1797412098E+02
          0                 5           2             4    7     1      -0.5323974940E-02       5    8    1        -0.3020634524E+00      0.7398654748E+00
          0                 6           1             4    7     1       0.6569547652E-04       5    8    1         0.3831953899E-02      0.9391688555E-02

    ------------------------------------------------
       NWT REQUIRED            6 OUTER ITERATIONS 
       AND A TOTAL OF         11 INNER ITERATIONS.
    ------------------------------------------------

 NO OUTPUT CONTROL FOR STRESS PERIOD    9   TIME STEP   11
 
 SOLVING FOR HEAD 
                                                   Max.-Head-Change                         Max.-Flux-Residual
  Residual-Control   Outer-Iter.   Inner-Iter.     Column Row Layer    Maximum-Head-Change  Column Row Layer    Maximum-Flux-Residual          L2-NORM 
          0                 1           2             5    6     1       0.1624675599E-01       4   13    1         0.8824525173E+00      0.2614500221E+01
          0                 2           2             7   13     1      -0.2873989806E-02       7   13    1        -0.1593895644E+00      0.3034399816E+00
          0                 3           2             4    7     1      -0.1509393210E+00       4    7    1        -0.8101813682E+01      0.1990660613E+02
          0                 4           2             4    7     1       0.1329851794E+00       4    7    1         0.7337637187E+01      0.1797412627E+02
          0                 5           2             4    7     1      -0.5323977891E-02       5    8    1        -0.3020635892E+00      0.7398655899E+00
          0                 6           1             4    7     1       0.6569551258E-04       5    8    1         0.3831955615E-02      0.9391675747E-02

    ------------------------------------------------
       NWT REQUIRED            6 OUTER ITERATIONS 
       AND A TOTAL OF         11 INNER ITERATIONS.
    ------------------------------------------------

 NO OUTPUT CONTROL FOR STRESS PERIOD    9   TIME STEP   12
 
 SOLVING FOR HEAD 
                                                   Max.-Head-Change                         Max.-Flux-Residual
  Residual-Control   Outer-Iter.   Inner-Iter.     Column Row Layer    Maximum-Head-Change  Column Row Layer    Maximum-Flux-Residual          L2-NORM 
          0                 1           2             5    6     1       0.1631030404E-01       4   13    1         0.8840600690E+00      0.2626364557E+01
          0                 2           2             7   13     1      -0.2879285505E-02       7   13    1        -0.1596822679E+00      0.3046002091E+00
          0                 3           2             4    7     1      -0.1509398416E+00       4    7    1        -0.8101838136E+01      0.1990673125E+02
          0                 4           2             4    7     1       0.1329852679E+00       4    7    1         0.7337639497E+01      0.1797413356E+02
          0                 5           2             4    7     1      -0.5323981422E-02       5    8    1        -0.3020637583E+00      0.7398657846E+00
          0                 6           1             4    7     1       0.6569555582E-04       5    8    1         0.3831957721E-02      0.9391657117E-02

    ------------------------------------------------
       NWT REQUIRED            6 OUTER ITERATIONS 
       AND A TOTAL OF         11 INNER ITERATIONS.
    ------------------------------------------------

 NO OUTPUT CONTROL FOR STRESS PERIOD    9   TIME STEP   13
 
 SOLVING FOR HEAD 
                                                   Max.-Head-Change                         Max.-Flux-Residual
  Residual-Control   Outer-Iter.   Inner-Iter.     Column Row Layer    Maximum-Head-Change  Column Row Layer    Maximum-Flux-Residual          L2-NORM 
          0                 1           2             5    6     1       0.1637320688E-01       5    6    1         0.8855716929E+00      0.2637924250E+01
          0                 2           2             7   13     1      -0.2884474113E-02       7   13    1        -0.1599690478E+00      0.3057320128E+00
          0                 3           2             4    7     1      -0.1509403431E+00       4    7    1        -0.8101861618E+01      0.1990685177E+02
          0                 4           2             4    7     1       0.1329853330E+00       4    7    1         0.7337640547E+01      0.1797413773E+02
          0                 5           2             4    7     1      -0.5323984023E-02       5    8    1        -0.3020638735E+00      0.7398658566E+00
          0                 6           1             4    7     1       0.6569558831E-04       5    8    1         0.3831959147E-02      0.9391642739E-02

    ------------------------------------------------
       NWT REQUIRED            6 OUTER ITERATIONS 
       AND A TOTAL OF         11 INNER ITERATIONS.
    ------------------------------------------------

 NO OUTPUT CONTROL FOR STRESS PERIOD    9   TIME STEP   14
 
 SOLVING FOR HEAD 
                                                   Max.-Head-Change                         Max.-Flux-Residual
  Residual-Control   Outer-Iter.   Inner-Iter.     Column Row Layer    Maximum-Head-Change  Column Row Layer    Maximum-Flux-Residual          L2-NORM 
          0                 1           2             5    6     1       0.1643515876E-01       5    6    1         0.8888351431E+00      0.2649174450E+01
          0                 2           2             7   13     1      -0.2889540938E-02       7   13    1        -0.1602490947E+00      0.3068343683E+00
          0                 3           2             4    7     1      -0.1509408607E+00       4    7    1        -0.8101886012E+01      0.1990697250E+02
          0                 4           2             4    7     1       0.1329854203E+00       4    7    1         0.7337642852E+01      0.1797414493E+02
          0                 5           2             4    7     1      -0.5323987509E-02       5    8    1        -0.3020640384E+00      0.7398660521E+00
          0                 6           1             4    7     1       0.6569563132E-04       5    8    1         0.3831961216E-02      0.9391627448E-02

    ------------------------------------------------
       NWT REQUIRED            6 OUTER ITERATIONS 
       AND A TOTAL OF         11 INNER ITERATIONS.
    ------------------------------------------------

 NO OUTPUT CONTROL FOR STRESS PERIOD    9   TIME STEP   15
 
 SOLVING FOR HEAD 
                                                   Max.-Head-Change                         Max.-Flux-Residual
  Residual-Control   Outer-Iter.   Inner-Iter.     Column Row Layer    Maximum-Head-Change  Column Row Layer    Maximum-Flux-Residual          L2-NORM 
          0                 1           2             5    6     1       0.1649646102E-01       5    6    1         0.8920658145E+00      0.2660141396E+01
          0                 2           2             7   13     1      -0.2894492192E-02       7   13    1        -0.1605227422E+00      0.3079113142E+00
          0                 3           2             4    7     1      -0.1509413587E+00       4    7    1        -0.8101909390E+01      0.1990708879E+02
          0                 4           2             4    7     1       0.1329854842E+00       4    7    1         0.7337643895E+01      0.1797414898E+02
          0                 5           2             4    7     1      -0.5323990062E-02       5    8    1        -0.3020641496E+00      0.7398661259E+00
          0                 6           1             4    7     1       0.6569566269E-04       5    8    1         0.3831962587E-02      0.9391615099E-02

    ------------------------------------------------
       NWT REQUIRED            6 OUTER ITERATIONS 
       AND A TOTAL OF         11 INNER ITERATIONS.
    ------------------------------------------------

 NO OUTPUT CONTROL FOR STRESS PERIOD    9   TIME STEP   16
 
 SOLVING FOR HEAD 
                                                   Max.-Head-Change                         Max.-Flux-Residual
  Residual-Control   Outer-Iter.   Inner-Iter.     Column Row Layer    Maximum-Head-Change  Column Row Layer    Maximum-Flux-Residual          L2-NORM 
          0                 1           2             5    6     1       0.1655681695E-01       5    6    1         0.8952462134E+00      0.2670832296E+01
          0                 2           2             7   13     1      -0.2899333544E-02       7   13    1        -0.1607903119E+00      0.3089616584E+00
          0                 3           2             4    7     1      -0.1509418525E+00       4    7    1        -0.8101932584E+01      0.1990720299E+02
          0                 4           2             4    7     1       0.1329855626E+00       4    7    1         0.7337645758E+01      0.1797415504E+02
          0                 5           2             4    7     1      -0.5323993192E-02       5    8    1        -0.3020642930E+00      0.7398662787E+00
          0                 6           1             4    7     1       0.6569570122E-04       5    8    1         0.3831964371E-02      0.9391596506E-02

    ------------------------------------------------
       NWT REQUIRED            6 OUTER ITERATIONS 
       AND A TOTAL OF         11 INNER ITERATIONS.
    ------------------------------------------------

 NO OUTPUT CONTROL FOR STRESS PERIOD    9   TIME STEP   17
 
 SOLVING FOR HEAD 
                                                   Max.-Head-Change                         Max.-Flux-Residual
  Residual-Control   Outer-Iter.   Inner-Iter.     Column Row Layer    Maximum-Head-Change  Column Row Layer    Maximum-Flux-Residual          L2-NORM 
          0                 1           2             5    6     1       0.1661653965E-01       5    6    1         0.8983940549E+00      0.2681261301E+01
          0                 2           2             7   13     1      -0.2904065460E-02       7   13    1        -0.1610518380E+00      0.3099886482E+00
          0                 3           2             4    7     1      -0.1509423455E+00       4    7    1        -0.8101955784E+01      0.1990731507E+02
          0                 4           2             4    7     1       0.1329856361E+00       4    7    1         0.7337647384E+01      0.1797416045E+02
          0                 5           2             4    7     1      -0.5323996126E-02       5    8    1        -0.3020644248E+00      0.7398664151E+00
          0                 6           1             4    7     1       0.6569573729E-04       5    8    1         0.3831966006E-02      0.9391583820E-02

    ------------------------------------------------
       NWT REQUIRED            6 OUTER ITERATIONS 
       AND A TOTAL OF         11 INNER ITERATIONS.
    ------------------------------------------------

 NO OUTPUT CONTROL FOR STRESS PERIOD    9   TIME STEP   18
 
 SOLVING FOR HEAD 
                                                   Max.-Head-Change                         Max.-Flux-Residual
  Residual-Control   Outer-Iter.   Inner-Iter.     Column Row Layer    Maximum-Head-Change  Column Row Layer    Maximum-Flux-Residual          L2-NORM 
          0                 1           2             5    6     1       0.1667532565E-01       5    6    1         0.9014924737E+00      0.2691442191E+01
          0                 2           2             7   13     1      -0.2908691583E-02       7   13    1        -0.1613075073E+00      0.3109918055E+00
          0                 3           2             4    7     1      -0.1509428371E+00       4    7    1        -0.8101978965E+01      0.1990742513E+02
          0                 4           2             4    7     1       0.1329857155E+00       4    7    1         0.7337649366E+01      0.1797416668E+02
          0                 5           2             4    7     1      -0.5323999295E-02       5    8    1        -0.3020645690E+00      0.7398665763E+00
          0                 6           1             4    7     1       0.6569577649E-04       5    8    1         0.3831967815E-02      0.9391555394E-02

    ------------------------------------------------
       NWT REQUIRED            6 OUTER ITERATIONS 
       AND A TOTAL OF         11 INNER ITERATIONS.
    ------------------------------------------------

 NO OUTPUT CONTROL FOR STRESS PERIOD    9   TIME STEP   19
 
 SOLVING FOR HEAD 
                                                   Max.-Head-Change                         Max.-Flux-Residual
  Residual-Control   Outer-Iter.   Inner-Iter.     Column Row Layer    Maximum-Head-Change  Column Row Layer    Maximum-Flux-Residual          L2-NORM 
          0                 1           2             5    6     1       0.1673349006E-01       5    6    1         0.9045588493E+00      0.2701381460E+01
          0                 2           2             7   13     1      -0.2913234642E-02       7   13    1        -0.1615585712E+00      0.3119734104E+00
          0                 3           2             4    7     1      -0.1509433234E+00       4    7    1        -0.8102001893E+01      0.1990753328E+02
          0                 4           2             4    7     1       0.1329857876E+00       4    7    1         0.7337650973E+01      0.1797417197E+02
          0                 5           2             4    7     1      -0.5324002178E-02       5    8    1        -0.3020646964E+00      0.7398667073E+00
          0                 6           1             4    7     1       0.6569581234E-04       5    8    1         0.3831969392E-02      0.9391550648E-02

    ------------------------------------------------
       NWT REQUIRED            6 OUTER ITERATIONS 
       AND A TOTAL OF         11 INNER ITERATIONS.
    ------------------------------------------------

 NO OUTPUT CONTROL FOR STRESS PERIOD    9   TIME STEP   20
 
 SOLVING FOR HEAD 
                                                   Max.-Head-Change                         Max.-Flux-Residual
  Residual-Control   Outer-Iter.   Inner-Iter.     Column Row Layer    Maximum-Head-Change  Column Row Layer    Maximum-Flux-Residual          L2-NORM 
          0                 1           2             5    6     1       0.1679073526E-01       5    6    1         0.9075764101E+00      0.2711086616E+01
          0                 2           2             7   13     1      -0.2917661134E-02       7   13    1        -0.1618032039E+00      0.3129318961E+00
          0                 3           2             4    7     1      -0.1509437882E+00       4    7    1        -0.8102023706E+01      0.1990763712E+02
          0                 4           2             4    7     1       0.1329858471E+00       4    7    1         0.7337651905E+01      0.1797417557E+02
          0                 5           2             4    7     1      -0.5324004555E-02       5    8    1        -0.3020647952E+00      0.7398667553E+00
          0                 6           1             4    7     1       0.6569584146E-04       5    8    1         0.3831970624E-02      0.9391536491E-02

    ------------------------------------------------
       NWT REQUIRED            6 OUTER ITERATIONS 
       AND A TOTAL OF         11 INNER ITERATIONS.
    ------------------------------------------------

 NO OUTPUT CONTROL FOR STRESS PERIOD    9   TIME STEP   21
 
 SOLVING FOR HEAD 
                                                   Max.-Head-Change                         Max.-Flux-Residual
  Residual-Control   Outer-Iter.   Inner-Iter.     Column Row Layer    Maximum-Head-Change  Column Row Layer    Maximum-Flux-Residual          L2-NORM 
          0                 1           2             5    6     1       0.1684707831E-01       5    6    1         0.9105462691E+00      0.2720571774E+01
          0                 2           2             7   13     1      -0.2922005496E-02       7   13    1        -0.1620432792E+00      0.3138701480E+00
          0                 3           2             4    7     1      -0.1509442685E+00       4    7    1        -0.8102046396E+01      0.1990774143E+02
          0                 4           2             4    7     1       0.1329859180E+00       5    6    1         0.7337654185E+01      0.1797418075E+02
          0                 5           2             4    7     1      -0.5324007386E-02       5    8    1        -0.3020649185E+00      0.7398668980E+00
          0                 6           1             4    7     1       0.6569587641E-04       5    8    1         0.3831972135E-02      0.9391530558E-02

    ------------------------------------------------
       NWT REQUIRED            6 OUTER ITERATIONS 
       AND A TOTAL OF         11 INNER ITERATIONS.
    ------------------------------------------------

 NO OUTPUT CONTROL FOR STRESS PERIOD    9   TIME STEP   22
 
 SOLVING FOR HEAD 
                                                   Max.-Head-Change                         Max.-Flux-Residual
  Residual-Control   Outer-Iter.   Inner-Iter.     Column Row Layer    Maximum-Head-Change  Column Row Layer    Maximum-Flux-Residual          L2-NORM 
          0                 1           2             5    6     1       0.1690283625E-01       5    6    1         0.9134858969E+00      0.2729839796E+01
          0                 2           2             7   13     1      -0.2926266920E-02       7   13    1        -0.1622787913E+00      0.3147876577E+00
          0                 3           2             4    7     1      -0.1509447424E+00       4    7    1        -0.8102068778E+01      0.1990784380E+02
          0                 4           2             4    7     1       0.1329859925E+00       5    6    1         0.7337657455E+01      0.1797418642E+02
          0                 5           2             4    7     1      -0.5324010358E-02       5    8    1        -0.3020650501E+00      0.7398670381E+00
          0                 6           1             4    7     1       0.6569591338E-04       5    8    1         0.3831973783E-02      0.9391509323E-02

    ------------------------------------------------
       NWT REQUIRED            6 OUTER ITERATIONS 
       AND A TOTAL OF         11 INNER ITERATIONS.
    ------------------------------------------------

 NO OUTPUT CONTROL FOR STRESS PERIOD    9   TIME STEP   23
 
 SOLVING FOR HEAD 
                                                   Max.-Head-Change                         Max.-Flux-Residual
  Residual-Control   Outer-Iter.   Inner-Iter.     Column Row Layer    Maximum-Head-Change  Column Row Layer    Maximum-Flux-Residual          L2-NORM 
          0                 1           2             5    6     1       0.1695770851E-01       5    6    1         0.9163785847E+00      0.2738911257E+01
          0                 2           2             7   13     1      -0.2930434120E-02       7   13    1        -0.1625090932E+00      0.3156868077E+00
          0                 3           2             4    7     1      -0.1509452134E+00       4    7    1        -0.8102091048E+01      0.1990794433E+02
          0                 4           2             4    7     1       0.1329860620E+00       5    6    1         0.7337660443E+01      0.1797419145E+02
          0                 5           2             4    7     1      -0.5324013132E-02       5    8    1        -0.3020651698E+00      0.7398671611E+00
          0                 6           1             4    7     1       0.6569594721E-04       5    8    1         0.3831975259E-02      0.9391505039E-02

    ------------------------------------------------
       NWT REQUIRED            6 OUTER ITERATIONS 
       AND A TOTAL OF         11 INNER ITERATIONS.
    ------------------------------------------------

 NO OUTPUT CONTROL FOR STRESS PERIOD    9   TIME STEP   24
 
 SOLVING FOR HEAD 
                                                   Max.-Head-Change                         Max.-Flux-Residual
  Residual-Control   Outer-Iter.   Inner-Iter.     Column Row Layer    Maximum-Head-Change  Column Row Layer    Maximum-Flux-Residual          L2-NORM 
          0                 1           2             5    6     1       0.1701201291E-01       5    6    1         0.9192418910E+00      0.2747779663E+01
          0                 2           2             7   13     1      -0.2934514742E-02       7   13    1        -0.1627345908E+00      0.3165669126E+00
          0                 3           2             4    7     1      -0.1509456792E+00       4    7    1        -0.8102113077E+01      0.1990804292E+02
          0                 4           2             4    7     1       0.1329861372E+00       5    6    1         0.7337663735E+01      0.1797419728E+02
          0                 5           2             4    7     1      -0.5324016135E-02       5    8    1        -0.3020653019E+00      0.7398673251E+00
          0                 6           1             4    7     1       0.6569598462E-04       5    8    1         0.3831976911E-02      0.9391489036E-02

    ------------------------------------------------
       NWT REQUIRED            6 OUTER ITERATIONS 
       AND A TOTAL OF         11 INNER ITERATIONS.
    ------------------------------------------------

 NO OUTPUT CONTROL FOR STRESS PERIOD    9   TIME STEP   25
 
 SOLVING FOR HEAD 
                                                   Max.-Head-Change                         Max.-Flux-Residual
  Residual-Control   Outer-Iter.   Inner-Iter.     Column Row Layer    Maximum-Head-Change  Column Row Layer    Maximum-Flux-Residual          L2-NORM 
          0                 1           2             5    6     1       0.1706544946E-01       5    6    1         0.9220591486E+00      0.2756451877E+01
          0                 2           2             7   13     1      -0.2938511680E-02       7   13    1        -0.1629554805E+00      0.3174281358E+00
          0                 3           2             4    7     1      -0.1509461396E+00       4    7    1        -0.8102134850E+01      0.1990813977E+02
          0                 4           2             4    7     1       0.1329862052E+00       5    6    1         0.7337666626E+01      0.1797420216E+02
          0                 5           2             4    7     1      -0.5324018851E-02       5    8    1        -0.3020654177E+00      0.7398674382E+00
          0                 6           1             4    7     1       0.6569601800E-04       5    8    1         0.3831978368E-02      0.9391483671E-02

    ------------------------------------------------
       NWT REQUIRED            6 OUTER ITERATIONS 
       AND A TOTAL OF         11 INNER ITERATIONS.
    ------------------------------------------------

 NO OUTPUT CONTROL FOR STRESS PERIOD    9   TIME STEP   26
 
 SOLVING FOR HEAD 
                                                   Max.-Head-Change                         Max.-Flux-Residual
  Residual-Control   Outer-Iter.   Inner-Iter.     Column Row Layer    Maximum-Head-Change  Column Row Layer    Maximum-Flux-Residual          L2-NORM 
          0                 1           2             5    6     1       0.1711804581E-01       5    6    1         0.9248313895E+00      0.2764945967E+01
          0                 2           2             7   13     1      -0.2942427677E-02       7   13    1        -0.1631718735E+00      0.3182721728E+00
          0                 3           2             4    7     1      -0.1509465782E+00       4    7    1        -0.8102155502E+01      0.1990823234E+02
          0                 4           2             4    7     1       0.1329862605E+00       5    6    1         0.7337668809E+01      0.1797420534E+02
          0                 5           2             4    7     1      -0.5324021060E-02       5    8    1        -0.3020655040E+00      0.7398674931E+00
          0                 6           1             4    7     1       0.6569604511E-04       5    8    1         0.3831979430E-02      0.9391465948E-02

    ------------------------------------------------
       NWT REQUIRED            6 OUTER ITERATIONS 
       AND A TOTAL OF         11 INNER ITERATIONS.
    ------------------------------------------------

 NO OUTPUT CONTROL FOR STRESS PERIOD    9   TIME STEP   27
 
 SOLVING FOR HEAD 
                                                   Max.-Head-Change                         Max.-Flux-Residual
  Residual-Control   Outer-Iter.   Inner-Iter.     Column Row Layer    Maximum-Head-Change  Column Row Layer    Maximum-Flux-Residual          L2-NORM 
          0                 1           2             5    6     1       0.1717011539E-01       5    6    1         0.9275765884E+00      0.2773265559E+01
          0                 2           2             7   13     1      -0.2946263626E-02       7   13    1        -0.1633838621E+00      0.3191000453E+00
          0                 3           2             4    7     1      -0.1509470267E+00       4    7    1        -0.8102176708E+01      0.1990832541E+02
          0                 4           2             4    7     1       0.1329863269E+00       5    6    1         0.7337671602E+01      0.1797421007E+02
          0                 5           2             4    7     1      -0.5324023715E-02       5    8    1        -0.3020656158E+00      0.7398676150E+00
          0                 6           1             4    7     1       0.6569607804E-04       5    8    1         0.3831980812E-02      0.9391458421E-02

    ------------------------------------------------
       NWT REQUIRED            6 OUTER ITERATIONS 
       AND A TOTAL OF         11 INNER ITERATIONS.
    ------------------------------------------------

 NO OUTPUT CONTROL FOR STRESS PERIOD    9   TIME STEP   28
 
 SOLVING FOR HEAD 
                                                   Max.-Head-Change                         Max.-Flux-Residual
  Residual-Control   Outer-Iter.   Inner-Iter.     Column Row Layer    Maximum-Head-Change  Column Row Layer    Maximum-Flux-Residual          L2-NORM 
          0                 1           2             5    6     1       0.1722135856E-01       5    6    1         0.9302778912E+00      0.2781413423E+01
          0                 2           2             7   13     1      -0.2950039060E-02       7   13    1        -0.1635925054E+00      0.3199104834E+00
          0                 3           2             4    7     1      -0.1509474884E+00       4    7    1        -0.8102198668E+01      0.1990841918E+02
          0                 4           2             4    7     1       0.1329864047E+00       5    6    1         0.7337675011E+01      0.1797421634E+02
          0                 5           2             4    7     1      -0.5324026819E-02       5    8    1        -0.3020657523E+00      0.7398677935E+00
          0                 6           1             4    7     1       0.6569611635E-04       5    8    1         0.3831982514E-02      0.9391446752E-02

    ------------------------------------------------
       NWT REQUIRED            6 OUTER ITERATIONS 
       AND A TOTAL OF         11 INNER ITERATIONS.
    ------------------------------------------------

 NO OUTPUT CONTROL FOR STRESS PERIOD    9   TIME STEP   29
 
 SOLVING FOR HEAD 
                                                   Max.-Head-Change                         Max.-Flux-Residual
  Residual-Control   Outer-Iter.   Inner-Iter.     Column Row Layer    Maximum-Head-Change  Column Row Layer    Maximum-Flux-Residual          L2-NORM 
          0                 1           2             5    6     1       0.1727209408E-01       5    6    1         0.9329528890E+00      0.2789401574E+01
          0                 2           2             7   13     1      -0.2953725351E-02       7   13    1        -0.1637962212E+00      0.3207059529E+00
          0                 3           2             4    7     1      -0.1509479257E+00       4    7    1        -0.8102219348E+01      0.1990850868E+02
          0                 4           2             4    7     1       0.1329864589E+00       5    6    1         0.7337677109E+01      0.1797421944E+02
          0                 5           2             4    7     1      -0.5324028983E-02       5    8    1        -0.3020658356E+00      0.7398678352E+00
          0                 6           1             4    7     1       0.6569614279E-04       5    8    1         0.3831983538E-02      0.9391427720E-02

    ------------------------------------------------
       NWT REQUIRED            6 OUTER ITERATIONS 
       AND A TOTAL OF         11 INNER ITERATIONS.
    ------------------------------------------------

 NO OUTPUT CONTROL FOR STRESS PERIOD    9   TIME STEP   30



 STREAM LISTING     PERIOD      9   STEP       30

 LAYER ROW COL. STREAM  RCH.  FLOW INTO     FLOW TO   FLOW OUT OF   OVRLND.     DIRECT     STREAM       STREAM     STREAM     STREAM   STREAMBED  STREAMBED
                SEG.NO.  NO.  STRM. RCH.    AQUIFER    STRM. RCH.    RUNOFF     PRECIP       ET          HEAD       DEPTH      WIDTH   CONDCTNC.   GRADIENT

   1    1    1     1     1    4.5750E+01  3.2289E-01   4.5427E+01  0.000E+00  0.000E+00  0.000E+00  1.09442E+03  1.372E+00  1.641E+01  7.386E-02  1.457E+00
   1    2    2     1     2    4.5427E+01  5.0023E-01   4.4927E+01  0.000E+00  0.000E+00  0.000E+00  1.08943E+03  1.369E+00  1.636E+01  1.145E-01  1.456E+00
   1    3    3     1     3    4.4927E+01  4.2678E-01   4.4500E+01  0.000E+00  0.000E+00  0.000E+00  1.08378E+03  1.366E+00  1.629E+01  9.776E-02  1.455E+00
   1    3    4     1     4    4.4500E+01  3.9314E-01   4.4107E+01  0.000E+00  0.000E+00  0.000E+00  1.07877E+03  1.363E+00  1.624E+01  9.011E-02  1.454E+00
   1    4    5     2     1    4.2107E+01  3.6245E-01   4.1744E+01  0.000E+00  0.000E+00  0.000E+00  1.07358E+03  1.647E+00  1.200E+01  7.800E-02  1.549E+00
   1    5    6     2     2    4.1744E+01  2.7835E-01   4.1466E+01  0.000E+00  0.000E+00  0.000E+00  1.06815E+03  1.639E+00  1.200E+01  6.000E-02  1.546E+00
   1    6    6     2     3    4.1466E+01  2.7796E-01   4.1188E+01  0.000E+00  0.000E+00  0.000E+00  1.06343E+03  1.633E+00  1.200E+01  6.000E-02  1.544E+00
   1    7    6     2     4    4.1188E+01  2.7756E-01   4.0910E+01  0.000E+00  0.000E+00  0.000E+00  1.05870E+03  1.626E+00  1.200E+01  6.000E-02  1.542E+00
   1    8    6     2     5    4.0910E+01  2.7717E-01   4.0633E+01  0.000E+00  0.000E+00  0.000E+00  1.05398E+03  1.619E+00  1.200E+01  6.000E-02  1.540E+00
   1    3    5     3     1    2.0000E+00  2.8252E-01   1.7175E+00  0.000E+00  0.000E+00  0.000E+00  1.07555E+03  1.909E+00  9.636E+00  7.227E-02  1.955E+00
   1    3    6     3     2    1.7175E+00  2.4905E-01   1.4684E+00  0.000E+00  0.000E+00  0.000E+00  1.07264E+03  1.727E+00  8.909E+00  6.682E-02  1.864E+00
   1    3    7     3     3    1.4684E+00  1.9718E-01   1.2712E+00  0.000E+00  0.000E+00  0.000E+00  1.06987E+03  1.555E+00  8.218E+00  5.547E-02  1.777E+00
   1    4    8     3     4    1.2712E+00  2.2567E-01   1.0456E+00  0.000E+00  0.000E+00  0.000E+00  1.06682E+03  1.364E+00  7.455E+00  6.709E-02  1.682E+00
   1    5    8     3     5    1.0456E+00  1.5790E-01   8.8768E-01  0.000E+00  0.000E+00  0.000E+00  1.06362E+03  1.164E+00  6.655E+00  4.991E-02  1.582E+00
   1    6    8     3     6    8.8768E-01  5.5980E-02   8.3170E-01  0.000E+00  0.000E+00  0.000E+00  1.06158E+03  1.036E+00  6.145E+00  1.844E-02  1.518E+00
   1    5   10     4     1    1.0000E+01  9.0919E-02   9.9091E+00  0.000E+00  0.000E+00  0.000E+00  1.07836E+03  6.368E-01  1.000E+01  2.500E-02  1.212E+00
   1    5    9     4     2    9.9091E+00  1.8158E-01   9.7275E+00  0.000E+00  0.000E+00  0.000E+00  1.07154E+03  6.315E-01  1.000E+01  5.000E-02  1.211E+00
   1    6    8     4     3    9.7275E+00  1.2689E-01   9.6006E+00  0.000E+00  0.000E+00  0.000E+00  1.06381E+03  6.256E-01  1.000E+01  3.500E-02  1.209E+00
   1    6    8     5     1    1.0432E+01  2.2686E-01   1.0205E+01  0.000E+00  0.000E+00  0.000E+00  1.05868E+03  6.790E-01  1.542E+01  6.166E-02  1.226E+00
   1    7    7     5     2    1.0205E+01  2.7894E-01   9.9265E+00  0.000E+00  0.000E+00  0.000E+00  1.05417E+03  6.732E-01  1.519E+01  7.594E-02  1.224E+00
   1    8    7     5     3    9.9265E+00  1.9221E-01   9.7343E+00  0.000E+00  0.000E+00  0.000E+00  1.04992E+03  6.676E-01  1.497E+01  5.241E-02  1.223E+00
   1    8    6     5     4    9.7343E+00  1.3577E-01   9.5985E+00  0.000E+00  0.000E+00  0.000E+00  1.04691E+03  6.637E-01  1.482E+01  3.706E-02  1.221E+00
   1    9    6     6     1    9.5985E+00  2.2097E-01   9.3776E+00  0.000E+00  0.000E+00  0.000E+00  1.04341E+03  6.828E-01  1.200E+01  6.000E-02  1.228E+00
   1   10    7     6     2    9.3776E+00  2.2039E-01   9.1572E+00  0.000E+00  0.000E+00  0.000E+00  1.03885E+03  6.732E-01  1.200E+01  6.000E-02  1.224E+00
   1   11    7     6     3    9.1572E+00  2.1981E-01   8.9374E+00  0.000E+00  0.000E+00  0.000E+00  1.03430E+03  6.636E-01  1.200E+01  6.000E-02  1.221E+00
   1   12    7     6     4    8.9374E+00  2.1923E-01   8.7181E+00  0.000E+00  0.000E+00  0.000E+00  1.02974E+03  6.539E-01  1.200E+01  6.000E-02  1.218E+00
   1   13    7     6     5    8.7181E+00 -1.2616E-01   8.8443E+00  0.000E+00  0.000E+00  0.000E+00  1.02656E+03  6.518E-01  1.200E+01  2.400E-01 -1.752E-01
   1   14    9     7     1    1.5000E+02  1.3357E+00   1.4866E+02  0.000E+00  0.000E+00  0.000E+00  1.03987E+03  2.288E+00  5.529E+01  5.593E-01  7.961E-01
   1   13    8     7     2    1.4866E+02  1.8238E+00   1.4684E+02  0.000E+00  0.000E+00  0.000E+00  1.03478E+03  2.279E+00  5.526E+01  6.148E-01  9.888E-01
   1   13    7     7     3    1.4684E+02  1.4539E+00   1.4539E+02  0.000E+00  0.000E+00  0.000E+00  1.02969E+03  2.271E+00  5.522E+01  5.585E-01  8.678E-01
   1   13    6     8     1    1.5423E+02  8.0718E-01   1.5342E+02  0.000E+00  0.000E+00  0.000E+00  1.02472E+03  2.844E+00  4.123E+01  4.202E-01  6.404E-01
   1   13    5     8     2    1.5342E+02  8.4284E-02   1.5334E+02  0.000E+00  0.000E+00  0.000E+00  1.01847E+03  2.840E+00  4.119E+01  4.197E-01  6.694E-02
   1   13    4     8     3    1.5334E+02 -2.7181E+00   1.5606E+02  0.000E+00  0.000E+00  0.000E+00  1.01222E+03  2.850E+00  4.132E+01  4.211E+00 -2.152E-01
   1   13    3     8     4    1.5606E+02 -3.7812E+00   1.5984E+02  0.000E+00  0.000E+00  0.000E+00  1.00600E+03  2.872E+00  4.164E+01  4.244E+00 -2.970E-01
   1   13    2     8     5    1.5984E+02 -2.6233E+00   1.6246E+02  0.000E+00  0.000E+00  0.000E+00  9.99769E+02  2.894E+00  4.196E+01  4.276E+00 -2.045E-01
   1   13    1     8     6    1.6246E+02 -2.0105E+00   1.6447E+02  0.000E+00  0.000E+00  0.000E+00  9.94784E+02  2.909E+00  4.218E+01  2.579E+00 -2.598E-01
   1    8    6     9     1    4.0633E+01  0.0000E+00   4.0633E+01  0.000E+00  0.000E+00  0.000E+00  1.08401E+03  5.255E+00  4.000E+00  0.000E+00  2.752E+00
   1    8    5     9     2    4.0633E+01  0.0000E+00   4.0633E+01  0.000E+00  0.000E+00  0.000E+00  1.08351E+03  5.255E+00  4.000E+00  0.000E+00  2.752E+00





UNSATURATED ZONE PACKAGE VOLUMETRIC BUDGET FOR  TIME STEP    30 STRESS PERIOD    9
  ------------------------------------------------------------------------------



     CUMULATIVE VOLUMES      L**3       RATES FOR THIS TIME STEP      L**3/T
     ------------------                 ------------------------

           IN:                                      IN:
           ---                                      ---
        INFILTRATION =   432436404.2146          INFILTRATION =          49.5263

          OUT:                                     OUT:
          ----                                     ----
              UZF ET =   392124014.8786                UZF ET =          49.5675
        UZF RECHARGE =       73224.0000          UZF RECHARGE =       0.0000E+00

            IN - OUT =    40239165.3360              IN - OUT =      -4.1239E-02

          STORAGE:                                 STORAGE:
          --------                                 --------
      STORAGE CHANGE =    40254765.5466        STORAGE CHANGE =      -4.1238E-02

 PERCENT DISCREPANCY IS DIFFERENCE BETWEEN IN-OUT MINUS CHANGE IN STORAGE
 DIVIDED BY THE AVERAGE OF IN AND OUT TIMES 100

 PERCENT DISCREPANCY =          -0.00     PERCENT DISCREPANCY =           0.00






1
  VOLUMETRIC BUDGET FOR AGRICULTURAL FIELDS AT  END OF TIME STEP   30, STRESS PERIOD   9
  ------------------------------------------------------------------------------

     CUMULATIVE VOLUMES      L**3       RATES FOR THIS TIME STEP      L**3/T
     ------------------                 ------------------------

           IN:                                      IN:
           ---                                      ---
           AG WELLS      =    86996240.0000             AG WELLS      =           8.0448
      DIVERSION SEGMENTS =   327532608.0000        DIVERSION SEGMENTS =          40.6331
           GW IRRIGATION =           0.0000             GW IRRIGATION =           0.0000
           SW IRRIGATION =           0.0000             SW IRRIGATION =           0.0000
        SYSTEM LOSSES GW =           0.0000          SYSTEM LOSSES GW =           0.0000
        SYSTEM LOSSES SW =           0.0000          SYSTEM LOSSES SW =           0.0000

                TOTAL IN =   414528832.0000                  TOTAL IN =          48.6779

          OUT:                                     OUT:
          ----                                     ----
           AG WELLS      =           0.0000             AG WELLS      =           0.0000
      DIVERSION SEGMENTS =           0.0000        DIVERSION SEGMENTS =           0.0000
           GW IRRIGATION =    86996240.0000             GW IRRIGATION =           8.0448
           SW IRRIGATION =   327539072.0000             SW IRRIGATION =          40.6339
        SYSTEM LOSSES GW =           0.0000          SYSTEM LOSSES GW =           0.0000
        SYSTEM LOSSES SW =           0.0000          SYSTEM LOSSES SW =           0.0000

               TOTAL OUT =   414535296.0000                 TOTAL OUT =          48.6788

                IN - OUT =       -6464.0000                  IN - OUT =      -8.0872E-04

     PERCENT DISCREPANCY =          -0.00         PERCENT DISCREPANCY =          -0.00



1
  VOLUMETRIC BUDGET FOR ENTIRE MODEL AT END OF TIME STEP   30, STRESS PERIOD   9
  ------------------------------------------------------------------------------

     CUMULATIVE VOLUMES      L**3       RATES FOR THIS TIME STEP      L**3/T
     ------------------                 ------------------------

           IN:                                      IN:
           ---                                      ---
             STORAGE     =   121754896.0000               STORAGE     =           8.0808
       CONSTANT HEAD     =           0.0000         CONSTANT HEAD     =           0.0000
     HEAD DEP BOUNDS     =     6036439.5000       HEAD DEP BOUNDS     =           0.2858
      STREAM LEAKAGE     =   257445920.0000        STREAM LEAKAGE     =          11.9032
        UZF RECHARGE     =       73223.9531          UZF RECHARGE     =           0.0000
               GW ET     =           0.0000                 GW ET     =           0.0000
     SURFACE LEAKAGE     =           0.0000       SURFACE LEAKAGE     =           0.0000
           AG WELLS      =           0.0000             AG WELLS      =           0.0000

                TOTAL IN =   385310464.0000                  TOTAL IN =          20.2698

          OUT:                                     OUT:
          ----                                     ----
             STORAGE     =    61670728.0000               STORAGE     =           0.6780
       CONSTANT HEAD     =           0.0000         CONSTANT HEAD     =           0.0000
     HEAD DEP BOUNDS     =     6154159.0000       HEAD DEP BOUNDS     =           0.2874
      STREAM LEAKAGE     =   228956176.0000        STREAM LEAKAGE     =          11.2592
        UZF RECHARGE     =           0.0000          UZF RECHARGE     =           0.0000
               GW ET     =     1534490.7500                 GW ET     =           0.0000
     SURFACE LEAKAGE     =           0.0000       SURFACE LEAKAGE     =           0.0000
           AG WELLS      =    86996240.0000             AG WELLS      =           8.0448

               TOTAL OUT =   385311808.0000                 TOTAL OUT =          20.2694

                IN - OUT =       -1344.0000                  IN - OUT =       3.3760E-04

     PERCENT DISCREPANCY =          -0.00         PERCENT DISCREPANCY =           0.00






         TIME SUMMARY AT END OF TIME STEP   30 IN STRESS PERIOD    9
                    SECONDS     MINUTES      HOURS       DAYS        YEARS
                    -----------------------------------------------------------
   TIME STEP LENGTH  87667.      1461.1      24.352      1.0147     2.77799E-03
 STRESS PERIOD TIME 2.63000E+06  43833.      730.56      30.440     8.33397E-02
         TOTAL TIME 2.11264E+07 3.52107E+05  5868.4      244.52     0.66945    
1
1
                            STRESS PERIOD NO.   10, LENGTH =   2630000.    
                            -----------------------------------------------

                              NUMBER OF TIME STEPS =    30

                               MULTIPLIER FOR DELT =     1.000

                            INITIAL TIME STEP SIZE =   87666.66    

 REUSING NON-PARAMETER GHB CELLS FROM LAST STRESS PERIOD

      2 GHB CELLS

 REUSING STREAM SEGMENT DATA FROM LAST STRESS PERIOD



            AREAL INFILTRATION RATE
 READING ON UNIT   19 WITH FORMAT: (FREE)              

            1           2           3           4           5           6           7           8           9          10
 ........................................................................................................................
   1   1.0000E-10  2.0000E-10   0.000       0.000       0.000       0.000       0.000       0.000       0.000       0.000    
   2   2.0000E-10  1.0000E-10  2.0000E-10   0.000       0.000      8.0000E-10  8.0000E-10  5.0000E-10   0.000       0.000    
   3    0.000      5.0000E-10  1.0000E-10  1.0000E-10  8.0000E-10  8.0000E-10  5.0000E-10  5.0000E-10   0.000       0.000    
   4   8.0000E-10  5.0000E-10  1.0000E-10  1.0000E-10  1.0000E-10  1.0000E-10  1.0000E-10  1.0000E-10  2.0000E-10   0.000    
   5   8.0000E-10  5.0000E-10  1.0000E-10  1.0000E-10  1.0000E-10  1.0000E-10  1.0000E-10  1.0000E-10  1.0000E-10  1.0000E-10
   6   8.0000E-10  5.0000E-10  5.0000E-10  2.0000E-10  2.0000E-10  1.0000E-10  1.0000E-10  1.0000E-10  1.0000E-10  5.0000E-10
   7   8.0000E-10  5.0000E-10  5.0000E-10  2.0000E-10  2.0000E-10  1.0000E-10  1.0000E-10  2.0000E-10  2.0000E-10   0.000    
   8    0.000      5.0000E-10  5.0000E-10  2.0000E-10  2.0000E-10  1.0000E-10  1.0000E-10  2.0000E-10  5.0000E-10   0.000    
   9    0.000      5.0000E-10  5.0000E-10  2.0000E-10  2.0000E-10  1.0000E-10  1.0000E-10  2.0000E-10  5.0000E-10   0.000    
  10    0.000      5.0000E-10  5.0000E-10  2.0000E-10  2.0000E-10  1.0000E-10  1.0000E-10  2.0000E-10  5.0000E-10  8.0000E-10
  11    0.000      1.0000E-10  1.0000E-10  1.0000E-10  1.0000E-10  1.0000E-10  1.0000E-10  2.0000E-10  5.0000E-10   0.000    
  12   1.0000E-10  1.0000E-10  1.0000E-10  1.0000E-10  1.0000E-10  1.0000E-10  1.0000E-10  1.0000E-10  2.0000E-10   0.000    
  13   1.0000E-10  1.0000E-10  2.0000E-10  2.0000E-10  2.0000E-10  2.0000E-10  2.0000E-10  1.0000E-10  1.0000E-10   0.000    
  14    0.000      2.0000E-10  5.0000E-10  5.0000E-10  5.0000E-10  5.0000E-10  5.0000E-10  2.0000E-10  1.0000E-10   0.000    
  15    0.000       0.000      8.0000E-10  8.0000E-10  8.0000E-10  8.0000E-10   0.000       0.000       0.000       0.000    

                  ET RATE =  7.500000E-08

 USING ET EXTINCTION DEPTH FROM PREVIOUS STRESS PERIOD. CURRENT PERIOD IS:      10

 USING EXTINCTION WATER CONTENT FROM PREVIOUS STRESS PERIOD. CURRENT PERIOD IS:      10

 USING AIR ENTRY PRESSURE FROM PREVIOUS STRESS PERIOD. CURRENT PERIOD IS:      10

 USING ROOT PRESSURE HEAD FROM PREVIOUS STRESS PERIOD. CURRENT PERIOD IS:      10

 USING ROOT ACTIVITY FROM PREVIOUS STRESS PERIOD. CURRENT PERIOD IS:      10

 PROCESSING AG STRESS PERIOD DATA

 READING AG STRESS PERIOD DATA

 READING IRRIGATION SEGMENT

 READING IRRIGATION WELL

 READING SUPPLEMENTAL WELL

 END PROCESSING AG STRESS PERIOD DATA OPTIONS
 
 SOLVING FOR HEAD 
                                                   Max.-Head-Change                         Max.-Flux-Residual
  Residual-Control   Outer-Iter.   Inner-Iter.     Column Row Layer    Maximum-Head-Change  Column Row Layer    Maximum-Flux-Residual          L2-NORM 
          0                 1           2             5    6     1       0.1732137006E-01       5    6    1         0.9355849794E+00      0.2540500726E+01
          0                 2           2             5    6     1      -0.1684893917E-02       5    6    1        -0.9355828655E-01      0.2671880523E+00
          0                 3           2             5    6     1       0.1147350596E-03       5    6    1         0.6549084902E-02      0.1858950512E-01
          0                 4           1             5    6     1      -0.4565404794E-05       5    6    1        -0.2678579385E-03      0.7529397869E-03

    ------------------------------------------------
       NWT REQUIRED            4 OUTER ITERATIONS 
       AND A TOTAL OF          7 INNER ITERATIONS.
    ------------------------------------------------

 NO OUTPUT CONTROL FOR STRESS PERIOD   10   TIME STEP    1
 
 SOLVING FOR HEAD 
                                                   Max.-Head-Change                         Max.-Flux-Residual
  Residual-Control   Outer-Iter.   Inner-Iter.     Column Row Layer    Maximum-Head-Change  Column Row Layer    Maximum-Flux-Residual          L2-NORM 
          0                 1           2             5    6     1       0.1667659321E-01       5    6    1         0.9002377840E+00      0.2489574302E+01
          0                 2           2             5    6     1      -0.1622174964E-02       5    6    1        -0.9002358160E-01      0.2476238666E+00
          0                 3           2             4    7     1      -0.3460501120E-01       4    7    1        -0.1857451245E+01      0.4569453625E+01
          0                 4           2             4    7     1       0.3611873921E-01       4    7    1         0.1992891452E+01      0.4881592990E+01
          0                 5           2             4    7     1      -0.1437547400E-02       5    8    1        -0.8155412492E-01      0.1997543763E+00
          0                 6           1             4    7     1       0.1773872932E-04       5    8    1         0.1034601602E-02      0.2534219080E-02

    ------------------------------------------------
       NWT REQUIRED            6 OUTER ITERATIONS 
       AND A TOTAL OF         11 INNER ITERATIONS.
    ------------------------------------------------

 NO OUTPUT CONTROL FOR STRESS PERIOD   10   TIME STEP    2
 
 SOLVING FOR HEAD 
                                                   Max.-Head-Change                         Max.-Flux-Residual
  Residual-Control   Outer-Iter.   Inner-Iter.     Column Row Layer    Maximum-Head-Change  Column Row Layer    Maximum-Flux-Residual          L2-NORM 
          0                 1           2             5    6     1       0.1606821519E-01       5    6    1         0.8667241395E+00      0.2411838821E+01
          0                 2           2             5    6     1      -0.1562996601E-02       5    6    1        -0.8667223298E-01      0.2399335440E+00
          0                 3           2             4    7     1      -0.3460845235E-01       4    7    1        -0.1857631368E+01      0.4570168293E+01
          0                 4           2             4    7     1       0.3612196692E-01       4    7    1         0.1993069158E+01      0.4882050329E+01
          0                 5           2             4    7     1      -0.1437675865E-02       5    8    1        -0.8156203369E-01      0.1997730925E+00
          0                 6           1             4    7     1       0.1774031457E-04       5    8    1         0.1034701892E-02      0.2534456903E-02

    ------------------------------------------------
       NWT REQUIRED            6 OUTER ITERATIONS 
       AND A TOTAL OF         11 INNER ITERATIONS.
    ------------------------------------------------

 NO OUTPUT CONTROL FOR STRESS PERIOD   10   TIME STEP    3
 
 SOLVING FOR HEAD 
                                                   Max.-Head-Change                         Max.-Flux-Residual
  Residual-Control   Outer-Iter.   Inner-Iter.     Column Row Layer    Maximum-Head-Change  Column Row Layer    Maximum-Flux-Residual          L2-NORM 
          0                 1           2             5    6     1       0.1549399393E-01       5    6    1         0.8351139611E+00      0.2339023602E+01
          0                 2           2             5    6     1      -0.1507140743E-02       5    6    1        -0.8351122971E-01      0.2327274338E+00
          0                 3           2             4    7     1      -0.3461183939E-01       4    7    1        -0.1857808967E+01      0.4570856145E+01
          0                 4           2             4    7     1       0.3612506478E-01       4    7    1         0.1993239774E+01      0.4882488611E+01
          0                 5           2             4    7     1      -0.1437799162E-02       5    8    1        -0.8156959949E-01      0.1997910142E+00
          0                 6           1             4    7     1       0.1774183574E-04       5    8    1         0.1034797815E-02      0.2534681167E-02

    ------------------------------------------------
       NWT REQUIRED            6 OUTER ITERATIONS 
       AND A TOTAL OF         11 INNER ITERATIONS.
    ------------------------------------------------

 NO OUTPUT CONTROL FOR STRESS PERIOD   10   TIME STEP    4
 
 SOLVING FOR HEAD 
                                                   Max.-Head-Change                         Max.-Flux-Residual
  Residual-Control   Outer-Iter.   Inner-Iter.     Column Row Layer    Maximum-Head-Change  Column Row Layer    Maximum-Flux-Residual          L2-NORM 
          0                 1           2             5    7     1       0.1498071787E-01       5    6    1         0.8052582178E+00      0.2270685224E+01
          0                 2           2             5    7     1      -0.1457214524E-02       5    6    1        -0.8052566872E-01      0.2259610828E+00
          0                 3           2             4    7     1      -0.3461517453E-01       4    7    1        -0.1857984141E+01      0.4571518533E+01
          0                 4           2             4    7     1       0.3612803947E-01       5    8    1         0.1993409128E+01      0.4882908839E+01
          0                 5           2             4    7     1      -0.1437917557E-02       5    8    1        -0.8157684061E-01      0.1998082165E+00
          0                 6           1             4    7     1       0.1774329710E-04       5    8    1         0.1034889647E-02      0.2534901391E-02

    ------------------------------------------------
       NWT REQUIRED            6 OUTER ITERATIONS 
       AND A TOTAL OF         11 INNER ITERATIONS.
    ------------------------------------------------

 NO OUTPUT CONTROL FOR STRESS PERIOD   10   TIME STEP    5
 
 SOLVING FOR HEAD 
                                                   Max.-Head-Change                         Max.-Flux-Residual
  Residual-Control   Outer-Iter.   Inner-Iter.     Column Row Layer    Maximum-Head-Change  Column Row Layer    Maximum-Flux-Residual          L2-NORM 
          0                 1           2             5    7     1       0.1468898471E-01       5    7    1         0.7785913058E+00      0.2206469956E+01
          0                 2           2             5    7     1      -0.1428837137E-02       5    7    1        -0.7785908593E-01      0.2196007988E+00
          0                 3           2             4    7     1      -0.3461845870E-01       4    7    1        -0.1858156922E+01      0.4572156731E+01
          0                 4           2             4    7     1       0.3613089977E-01       5    8    1         0.1993578794E+01      0.4883312289E+01
          0                 5           2             4    7     1      -0.1438031399E-02       5    8    1        -0.8158378099E-01      0.1998247173E+00
          0                 6           1             4    7     1       0.1774470178E-04       5    8    1         0.1034977646E-02      0.2535103053E-02

    ------------------------------------------------
       NWT REQUIRED            6 OUTER ITERATIONS 
       AND A TOTAL OF         11 INNER ITERATIONS.
    ------------------------------------------------

 NO OUTPUT CONTROL FOR STRESS PERIOD   10   TIME STEP    6
 
 SOLVING FOR HEAD 
                                                   Max.-Head-Change                         Max.-Flux-Residual
  Residual-Control   Outer-Iter.   Inner-Iter.     Column Row Layer    Maximum-Head-Change  Column Row Layer    Maximum-Flux-Residual          L2-NORM 
          0                 1           2             4    7     1       0.1443000118E-01       5    7    1         0.7634155888E+00      0.2146030588E+01
          0                 2           2             4    7     1      -0.1403646104E-02       5    7    1        -0.7634153234E-01      0.2136114416E+00
          0                 3           2             4    7     1      -0.3462169700E-01       5    8    1        -0.1858439399E+01      0.4572772595E+01
          0                 4           2             4    7     1       0.3613365472E-01       5    8    1         0.1993741661E+01      0.4883700252E+01
          0                 5           2             4    7     1      -0.1438141048E-02       5    8    1        -0.8159044338E-01      0.1998405968E+00
          0                 6           1             4    7     1       0.1774605471E-04       5    8    1         0.1035062133E-02      0.2535314923E-02

    ------------------------------------------------
       NWT REQUIRED            6 OUTER ITERATIONS 
       AND A TOTAL OF         11 INNER ITERATIONS.
    ------------------------------------------------

 NO OUTPUT CONTROL FOR STRESS PERIOD   10   TIME STEP    7
 
 SOLVING FOR HEAD 
                                                   Max.-Head-Change                         Max.-Flux-Residual
  Residual-Control   Outer-Iter.   Inner-Iter.     Column Row Layer    Maximum-Head-Change  Column Row Layer    Maximum-Flux-Residual          L2-NORM 
          0                 1           2             4    7     1       0.1432913468E-01       4    7    1         0.7497666767E+00      0.2089057332E+01
          0                 2           2             4    7     1      -0.1393834816E-02       4    7    1        -0.7497671122E-01      0.2079626395E+00
          0                 3           2             4    7     1      -0.3462488623E-01       5    8    1        -0.1858751664E+01      0.4573366091E+01
          0                 4           2             4    7     1       0.3613630631E-01       5    8    1         0.1993897915E+01      0.4884073076E+01
          0                 5           2             4    7     1      -0.1438246583E-02       5    8    1        -0.8159683532E-01      0.1998558508E+00
          0                 6           1             4    7     1       0.1774735723E-04       5    8    1         0.1035143174E-02      0.2535507242E-02

    ------------------------------------------------
       NWT REQUIRED            6 OUTER ITERATIONS 
       AND A TOTAL OF         11 INNER ITERATIONS.
    ------------------------------------------------

 NO OUTPUT CONTROL FOR STRESS PERIOD   10   TIME STEP    8
 
 SOLVING FOR HEAD 
                                                   Max.-Head-Change                         Max.-Flux-Residual
  Residual-Control   Outer-Iter.   Inner-Iter.     Column Row Layer    Maximum-Head-Change  Column Row Layer    Maximum-Flux-Residual          L2-NORM 
          0                 1           2             4    7     1       0.1422139316E-01       4    7    1         0.7445368528E+00      0.2035261879E+01
          0                 2           2             4    7     1      -0.1383354749E-02       4    7    1        -0.7445374561E-01      0.2026288158E+00
          0                 3           2             4    7     1      -0.3462802620E-01       5    8    1        -0.1859049047E+01      0.4573939282E+01
          0                 4           2             4    7     1       0.3613886107E-01       5    8    1         0.1994048005E+01      0.4884431755E+01
          0                 5           2             4    7     1      -0.1438348264E-02       5    8    1        -0.8160297522E-01      0.1998705228E+00
          0                 6           1             4    7     1       0.1774861158E-04       5    8    1         0.1035221045E-02      0.2535689320E-02

    ------------------------------------------------
       NWT REQUIRED            6 OUTER ITERATIONS 
       AND A TOTAL OF         11 INNER ITERATIONS.
    ------------------------------------------------

 NO OUTPUT CONTROL FOR STRESS PERIOD   10   TIME STEP    9
 
 SOLVING FOR HEAD 
                                                   Max.-Head-Change                         Max.-Flux-Residual
  Residual-Control   Outer-Iter.   Inner-Iter.     Column Row Layer    Maximum-Head-Change  Column Row Layer    Maximum-Flux-Residual          L2-NORM 
          0                 1           2             4    7     1       0.1410719290E-01       4    7    1         0.7389357877E+00      0.1984409753E+01
          0                 2           2             4    7     1      -0.1372246396E-02       4    7    1        -0.7389365407E-01      0.1975832239E+00
          0                 3           2             4    7     1      -0.3463111854E-01       5    8    1        -0.1859332144E+01      0.4574492240E+01
          0                 4           2             4    7     1       0.3614132347E-01       5    8    1         0.1994192213E+01      0.4884776904E+01
          0                 5           2             4    7     1      -0.1438446269E-02       5    8    1        -0.8160887458E-01      0.1998846437E+00
          0                 6           1             4    7     1       0.1774982091E-04       5    8    1         0.1035295867E-02      0.2535868100E-02

    ------------------------------------------------
       NWT REQUIRED            6 OUTER ITERATIONS 
       AND A TOTAL OF         11 INNER ITERATIONS.
    ------------------------------------------------

 NO OUTPUT CONTROL FOR STRESS PERIOD   10   TIME STEP   10
 
 SOLVING FOR HEAD 
                                                   Max.-Head-Change                         Max.-Flux-Residual
  Residual-Control   Outer-Iter.   Inner-Iter.     Column Row Layer    Maximum-Head-Change  Column Row Layer    Maximum-Flux-Residual          L2-NORM 
          0                 1           2             4    7     1       0.1398719426E-01       4    7    1         0.7329998416E+00      0.1936251274E+01
          0                 2           2             4    7     1      -0.1360573992E-02       4    7    1        -0.7330007267E-01      0.1928045603E+00
          0                 3           2             4    7     1      -0.3463416990E-01       5    8    1        -0.1859602427E+01      0.4575027023E+01
          0                 4           2             4    7     1       0.3614370481E-01       5    8    1         0.1994331236E+01      0.4885110155E+01
          0                 5           2             4    7     1      -0.1438541048E-02       5    8    1        -0.8161456191E-01      0.1998982803E+00
          0                 6           1             4    7     1       0.1775099035E-04       5    8    1         0.1035367984E-02      0.2536044914E-02

    ------------------------------------------------
       NWT REQUIRED            6 OUTER ITERATIONS 
       AND A TOTAL OF         11 INNER ITERATIONS.
    ------------------------------------------------

 NO OUTPUT CONTROL FOR STRESS PERIOD   10   TIME STEP   11
 
 SOLVING FOR HEAD 
                                                   Max.-Head-Change                         Max.-Flux-Residual
  Residual-Control   Outer-Iter.   Inner-Iter.     Column Row Layer    Maximum-Head-Change  Column Row Layer    Maximum-Flux-Residual          L2-NORM 
          0                 1           2             4    7     1       0.1386201593E-01       4    7    1         0.7267632537E+00      0.1890596689E+01
          0                 2           2             4    7     1      -0.1348397723E-02       4    7    1        -0.7267642557E-01      0.1882711984E+00
          0                 3           2             4    7     1      -0.3463717390E-01       5    8    1        -0.1859860146E+01      0.4575544041E+01
          0                 4           2             4    7     1       0.3614600253E-01       5    8    1         0.1994464973E+01      0.4885431233E+01
          0                 5           2             4    7     1      -0.1438632499E-02       5    8    1        -0.8162003308E-01      0.1999114168E+00
          0                 6           1             4    7     1       0.1775211880E-04       5    8    1         0.1035437358E-02      0.2536208555E-02

    ------------------------------------------------
       NWT REQUIRED            6 OUTER ITERATIONS 
       AND A TOTAL OF         11 INNER ITERATIONS.
    ------------------------------------------------

 NO OUTPUT CONTROL FOR STRESS PERIOD   10   TIME STEP   12
 
 SOLVING FOR HEAD 
                                                   Max.-Head-Change                         Max.-Flux-Residual
  Residual-Control   Outer-Iter.   Inner-Iter.     Column Row Layer    Maximum-Head-Change  Column Row Layer    Maximum-Flux-Residual          L2-NORM 
          0                 1           2             4    7     1       0.1373250094E-01       4    7    1         0.7202728814E+00      0.1847254333E+01
          0                 2           2             4    7     1      -0.1335799594E-02       4    7    1        -0.7202739864E-01      0.1839665804E+00
          0                 3           2             4    7     1      -0.3464013151E-01       5    8    1        -0.1860106328E+01      0.4576043873E+01
          0                 4           2             4    7     1       0.3614822324E-01       5    8    1         0.1994593853E+01      0.4885741072E+01
          0                 5           2             4    7     1      -0.1438720886E-02       5    8    1        -0.8162530559E-01      0.1999240916E+00
          0                 6           1             4    7     1       0.1775320983E-04       5    8    1         0.1035504241E-02      0.2536368890E-02

    ------------------------------------------------
       NWT REQUIRED            6 OUTER ITERATIONS 
       AND A TOTAL OF         11 INNER ITERATIONS.
    ------------------------------------------------

 NO OUTPUT CONTROL FOR STRESS PERIOD   10   TIME STEP   13
 
 SOLVING FOR HEAD 
                                                   Max.-Head-Change                         Max.-Flux-Residual
  Residual-Control   Outer-Iter.   Inner-Iter.     Column Row Layer    Maximum-Head-Change  Column Row Layer    Maximum-Flux-Residual          L2-NORM 
          0                 1           2             4    7     1       0.1359863990E-01       4    7    1         0.7135280975E+00      0.1806054622E+01
          0                 2           2             4    7     1      -0.1322778694E-02       4    7    1        -0.7135292918E-01      0.1798730381E+00
          0                 3           2             4    7     1      -0.3464304502E-01       5    8    1        -0.1860341601E+01      0.4576527496E+01
          0                 4           2             4    7     1       0.3615036925E-01       5    8    1         0.1994718039E+01      0.4886040038E+01
          0                 5           2             4    7     1      -0.1438806299E-02       5    8    1        -0.8163038616E-01      0.1999363246E+00
          0                 6           1             4    7     1       0.1775426368E-04       5    8    1         0.1035568670E-02      0.2536525563E-02

    ------------------------------------------------
       NWT REQUIRED            6 OUTER ITERATIONS 
       AND A TOTAL OF         11 INNER ITERATIONS.
    ------------------------------------------------

 NO OUTPUT CONTROL FOR STRESS PERIOD   10   TIME STEP   14
 
 SOLVING FOR HEAD 
                                                   Max.-Head-Change                         Max.-Flux-Residual
  Residual-Control   Outer-Iter.   Inner-Iter.     Column Row Layer    Maximum-Head-Change  Column Row Layer    Maximum-Flux-Residual          L2-NORM 
          0                 1           2             4    7     1       0.1346121464E-01       4    7    1         0.7065727531E+00      0.1766833703E+01
          0                 2           2             4    7     1      -0.1309411075E-02       4    7    1        -0.7065740250E-01      0.1759750128E+00
          0                 3           2             4    7     1      -0.3464591804E-01       5    8    1        -0.1860566911E+01      0.4576996120E+01
          0                 4           2             4    7     1       0.3615244952E-01       5    8    1         0.1994838073E+01      0.4886329401E+01
          0                 5           2             4    7     1      -0.1438889094E-02       5    8    1        -0.8163529697E-01      0.1999481677E+00
          0                 6           1             4    7     1       0.1775528504E-04       5    8    1         0.1035630937E-02      0.2536675423E-02

    ------------------------------------------------
       NWT REQUIRED            6 OUTER ITERATIONS 
       AND A TOTAL OF         11 INNER ITERATIONS.
    ------------------------------------------------

 NO OUTPUT CONTROL FOR STRESS PERIOD   10   TIME STEP   15
 
 SOLVING FOR HEAD 
                                                   Max.-Head-Change                         Max.-Flux-Residual
  Residual-Control   Outer-Iter.   Inner-Iter.     Column Row Layer    Maximum-Head-Change  Column Row Layer    Maximum-Flux-Residual          L2-NORM 
          0                 1           2             4    7     1       0.1332069278E-01       4    7    1         0.6994326063E+00      0.1729465511E+01
          0                 2           2             4    7     1      -0.1295742226E-02       4    7    1        -0.6994339449E-01      0.1722590918E+00
          0                 3           2             4    7     1      -0.3464874520E-01       5    8    1        -0.1860782356E+01      0.4577449680E+01
          0                 4           2             4    7     1       0.3615446154E-01       5    8    1         0.1994953844E+01      0.4886608859E+01
          0                 5           2             4    7     1      -0.1438969174E-02       5    8    1        -0.8164003335E-01      0.1999595939E+00
          0                 6           1             4    7     1       0.1775627347E-04       5    8    1         0.1035691006E-02      0.2536822705E-02

    ------------------------------------------------
       NWT REQUIRED            6 OUTER ITERATIONS 
       AND A TOTAL OF         11 INNER ITERATIONS.
    ------------------------------------------------

 NO OUTPUT CONTROL FOR STRESS PERIOD   10   TIME STEP   16
 
 SOLVING FOR HEAD 
                                                   Max.-Head-Change                         Max.-Flux-Residual
  Residual-Control   Outer-Iter.   Inner-Iter.     Column Row Layer    Maximum-Head-Change  Column Row Layer    Maximum-Flux-Residual          L2-NORM 
          0                 1           2             4    7     1       0.1317778225E-01       4    7    1         0.6921466837E+00      0.1693821264E+01
          0                 2           2             4    7     1      -0.1281841009E-02       4    7    1        -0.6921480789E-01      0.1687139653E+00
          0                 3           2             4    7     1      -0.3465152618E-01       5    8    1        -0.1860988809E+01      0.4577889024E+01
          0                 4           2             4    7     1       0.3615640965E-01       5    8    1         0.1995065649E+01      0.4886879081E+01
          0                 5           2             4    7     1      -0.1439046711E-02       5    8    1        -0.8164460761E-01      0.1999706538E+00
          0                 6           1             4    7     1       0.1775723031E-04       5    8    1         0.1035749027E-02      0.2536956257E-02

    ------------------------------------------------
       NWT REQUIRED            6 OUTER ITERATIONS 
       AND A TOTAL OF         11 INNER ITERATIONS.
    ------------------------------------------------

 NO OUTPUT CONTROL FOR STRESS PERIOD   10   TIME STEP   17
 
 SOLVING FOR HEAD 
                                                   Max.-Head-Change                         Max.-Flux-Residual
  Residual-Control   Outer-Iter.   Inner-Iter.     Column Row Layer    Maximum-Head-Change  Column Row Layer    Maximum-Flux-Residual          L2-NORM 
          0                 1           2             4    7     1       0.1303233186E-01       4    7    1         0.6847073471E+00      0.1659781027E+01
          0                 2           2             4    7     1      -0.1267692720E-02       4    7    1        -0.6847087903E-01      0.1653269641E+00
          0                 3           2             4    7     1      -0.3465426644E-01       5    8    1        -0.1861186770E+01      0.4578314920E+01
          0                 4           2             4    7     1       0.3615829856E-01       5    8    1         0.1995173764E+01      0.4887140692E+01
          0                 5           2             4    7     1      -0.1439121890E-02       5    8    1        -0.8164903091E-01      0.1999813580E+00
          0                 6           1             4    7     1       0.1775815780E-04       5    8    1         0.1035805132E-02      0.2537099784E-02

    ------------------------------------------------
       NWT REQUIRED            6 OUTER ITERATIONS 
       AND A TOTAL OF         11 INNER ITERATIONS.
    ------------------------------------------------

 NO OUTPUT CONTROL FOR STRESS PERIOD   10   TIME STEP   18
 
 SOLVING FOR HEAD 
                                                   Max.-Head-Change                         Max.-Flux-Residual
  Residual-Control   Outer-Iter.   Inner-Iter.     Column Row Layer    Maximum-Head-Change  Column Row Layer    Maximum-Flux-Residual          L2-NORM 
          0                 1           2             4    7     1       0.1288499947E-01       4    7    1         0.6771511012E+00      0.1627236963E+01
          0                 2           2             4    7     1      -0.1253361352E-02       4    7    1        -0.6771525838E-01      0.1620887749E+00
          0                 3           2             4    7     1      -0.3465696598E-01       5    8    1        -0.1861376827E+01      0.4578728150E+01
          0                 4           2             4    7     1       0.3616013261E-01       5    8    1         0.1995278466E+01      0.4887394246E+01
          0                 5           2             4    7     1      -0.1439194887E-02       5    8    1        -0.8165331466E-01      0.1999917308E+00
          0                 6           1             4    7     1       0.1775905841E-04       5    8    1         0.1035859434E-02      0.2537226948E-02

    ------------------------------------------------
       NWT REQUIRED            6 OUTER ITERATIONS 
       AND A TOTAL OF         11 INNER ITERATIONS.
    ------------------------------------------------

 NO OUTPUT CONTROL FOR STRESS PERIOD   10   TIME STEP   19
 
 SOLVING FOR HEAD 
                                                   Max.-Head-Change                         Max.-Flux-Residual
  Residual-Control   Outer-Iter.   Inner-Iter.     Column Row Layer    Maximum-Head-Change  Column Row Layer    Maximum-Flux-Residual          L2-NORM 
          0                 1           2             4    7     1       0.1273613491E-01       4    7    1         0.6694972746E+00      0.1596087698E+01
          0                 2           2             4    7     1      -0.1238880934E-02       4    7    1        -0.6694987891E-01      0.1589873418E+00
          0                 3           2             4    7     1      -0.3465962022E-01       5    8    1        -0.1861559188E+01      0.4579128806E+01
          0                 4           2             4    7     1       0.3616190937E-01       5    8    1         0.1995379652E+01      0.4887639661E+01
          0                 5           2             4    7     1      -0.1439265604E-02       5    8    1        -0.8165745456E-01      0.2000017713E+00
          0                 6           1             4    7     1       0.1775993123E-04       5    8    1         0.1035911945E-02      0.2537354527E-02

    ------------------------------------------------
       NWT REQUIRED            6 OUTER ITERATIONS 
       AND A TOTAL OF         11 INNER ITERATIONS.
    ------------------------------------------------

 NO OUTPUT CONTROL FOR STRESS PERIOD   10   TIME STEP   20
 
 SOLVING FOR HEAD 
                                                   Max.-Head-Change                         Max.-Flux-Residual
  Residual-Control   Outer-Iter.   Inner-Iter.     Column Row Layer    Maximum-Head-Change  Column Row Layer    Maximum-Flux-Residual          L2-NORM 
          0                 1           2             4    7     1       0.1258605729E-01       4    7    1         0.6617640051E+00      0.1566251449E+01
          0                 2           2             4    7     1      -0.1224282510E-02       4    7    1        -0.6617655448E-01      0.1560155691E+00
          0                 3           2             4    7     1      -0.3466223147E-01       5    8    1        -0.1861734392E+01      0.4579517513E+01
          0                 4           2             4    7     1       0.3616363334E-01       5    8    1         0.1995477597E+01      0.4887877458E+01
          0                 5           2             4    7     1      -0.1439334219E-02       5    8    1        -0.8166146195E-01      0.2000114977E+00
          0                 6           1             4    7     1       0.1776077807E-04       5    8    1         0.1035962777E-02      0.2537478529E-02

    ------------------------------------------------
       NWT REQUIRED            6 OUTER ITERATIONS 
       AND A TOTAL OF         11 INNER ITERATIONS.
    ------------------------------------------------

 NO OUTPUT CONTROL FOR STRESS PERIOD   10   TIME STEP   21
 
 SOLVING FOR HEAD 
                                                   Max.-Head-Change                         Max.-Flux-Residual
  Residual-Control   Outer-Iter.   Inner-Iter.     Column Row Layer    Maximum-Head-Change  Column Row Layer    Maximum-Flux-Residual          L2-NORM 
          0                 1           2             4    7     1       0.1243478929E-01       4    7    1         0.6539530558E+00      0.1537636756E+01
          0                 2           2             4    7     1      -0.1209568284E-02       4    7    1        -0.6539546146E-01      0.1531650044E+00
          0                 3           2             4    7     1      -0.3466480623E-01       5    8    1        -0.1861902967E+01      0.4579895354E+01
          0                 4           2             4    7     1       0.3616531143E-01       5    8    1         0.1995572695E+01      0.4888103844E+01
          0                 5           2             4    7     1      -0.1439401009E-02       5    8    1        -0.8166535289E-01      0.2000142932E+00
          0                 6           1             4    7     1       0.1776160229E-04       5    8    1         0.1036012134E-02      0.2537391106E-02

    ------------------------------------------------
       NWT REQUIRED            6 OUTER ITERATIONS 
       AND A TOTAL OF         11 INNER ITERATIONS.
    ------------------------------------------------

 NO OUTPUT CONTROL FOR STRESS PERIOD   10   TIME STEP   22
 
 SOLVING FOR HEAD 
                                                   Max.-Head-Change                         Max.-Flux-Residual
  Residual-Control   Outer-Iter.   Inner-Iter.     Column Row Layer    Maximum-Head-Change  Column Row Layer    Maximum-Flux-Residual          L2-NORM 
          0                 1           2             4    7     1       0.1228316688E-01       4    7    1         0.6461099512E+00      0.1510182464E+01
          0                 2           2             4    7     1      -0.1194819576E-02       4    7    1        -0.6461115235E-01      0.1504295830E+00
          0                 3           2             4    7     1      -0.3466733442E-01       5    8    1        -0.1862065161E+01      0.4580261998E+01
          0                 4           2             4    7     1       0.3616693871E-01       5    8    1         0.1995664726E+01      0.4888327755E+01
          0                 5           2             4    7     1      -0.1439465775E-02       5    8    1        -0.8166911839E-01      0.2000234676E+00
          0                 6           1             4    7     1       0.1776240163E-04       5    8    1         0.1036059900E-02      0.2537516736E-02

    ------------------------------------------------
       NWT REQUIRED            6 OUTER ITERATIONS 
       AND A TOTAL OF         11 INNER ITERATIONS.
    ------------------------------------------------

 NO OUTPUT CONTROL FOR STRESS PERIOD   10   TIME STEP   23
 
 SOLVING FOR HEAD 
                                                   Max.-Head-Change                         Max.-Flux-Residual
  Residual-Control   Outer-Iter.   Inner-Iter.     Column Row Layer    Maximum-Head-Change  Column Row Layer    Maximum-Flux-Residual          L2-NORM 
          0                 1           2             4    7     1       0.1213088203E-01       4    7    1         0.6382189030E+00      0.1483813954E+01
          0                 2           2             4    7     1      -0.1180006424E-02       4    7    1        -0.6382204841E-01      0.1478020246E+00
          0                 3           2             4    7     1      -0.3466982256E-01       5    8    1        -0.1862221115E+01      0.4580617943E+01
          0                 4           2             4    7     1       0.3616851991E-01       5    8    1         0.1995753937E+01      0.4888545036E+01
          0                 5           2             4    7     1      -0.1439528709E-02       5    8    1        -0.8167276857E-01      0.2000323490E+00
          0                 6           1             4    7     1       0.1776317813E-04       5    8    1         0.1036106183E-02      0.2537621849E-02

    ------------------------------------------------
       NWT REQUIRED            6 OUTER ITERATIONS 
       AND A TOTAL OF         11 INNER ITERATIONS.
    ------------------------------------------------

 NO OUTPUT CONTROL FOR STRESS PERIOD   10   TIME STEP   24
 
 SOLVING FOR HEAD 
                                                   Max.-Head-Change                         Max.-Flux-Residual
  Residual-Control   Outer-Iter.   Inner-Iter.     Column Row Layer    Maximum-Head-Change  Column Row Layer    Maximum-Flux-Residual          L2-NORM 
          0                 1           2             4    7     1       0.1197872482E-01       4    7    1         0.6303230750E+00      0.1458464355E+01
          0                 2           2             4    7     1      -0.1165205682E-02       4    7    1        -0.6303246605E-01      0.1452740582E+00
          0                 3           2             4    7     1      -0.3467226978E-01       5    8    1        -0.1862371636E+01      0.4580964347E+01
          0                 4           2             4    7     1       0.3617005937E-01       5    8    1         0.1995827821E+01      0.4888746359E+01
          0                 5           2             4    7     1      -0.1439589980E-02       5    8    1        -0.8166296077E-01      0.2000270239E+00
          0                 6           1             4    7     1       0.1776393356E-04       5    8    1         0.1035825059E-02      0.2537311283E-02

    ------------------------------------------------
       NWT REQUIRED            6 OUTER ITERATIONS 
       AND A TOTAL OF         11 INNER ITERATIONS.
    ------------------------------------------------

 NO OUTPUT CONTROL FOR STRESS PERIOD   10   TIME STEP   25
 
 SOLVING FOR HEAD 
                                                   Max.-Head-Change                         Max.-Flux-Residual
  Residual-Control   Outer-Iter.   Inner-Iter.     Column Row Layer    Maximum-Head-Change  Column Row Layer    Maximum-Flux-Residual          L2-NORM 
          0                 1           2             4    7     1       0.1182634782E-01       4    7    1         0.6224042951E+00      0.1434072936E+01
          0                 2           2             4    7     1      -0.1150383553E-02       4    7    1        -0.6224058807E-01      0.1428419609E+00
          0                 3           2             4    7     1      -0.3467467620E-01       5    8    1        -0.1862516474E+01      0.4581300808E+01
          0                 4           2             4    7     1       0.3617155488E-01       5    8    1         0.1995911857E+01      0.4888946620E+01
          0                 5           2             4    7     1      -0.1439649503E-02       5    8    1        -0.8166639859E-01      0.2000287990E+00
          0                 6           1             4    7     1       0.1776466839E-04       5    8    1         0.1035868637E-02      0.2537221063E-02

    ------------------------------------------------
       NWT REQUIRED            6 OUTER ITERATIONS 
       AND A TOTAL OF         11 INNER ITERATIONS.
    ------------------------------------------------

 NO OUTPUT CONTROL FOR STRESS PERIOD   10   TIME STEP   26
 
 SOLVING FOR HEAD 
                                                   Max.-Head-Change                         Max.-Flux-Residual
  Residual-Control   Outer-Iter.   Inner-Iter.     Column Row Layer    Maximum-Head-Change  Column Row Layer    Maximum-Flux-Residual          L2-NORM 
          0                 1           2             4    7     1       0.1167422809E-01       4    7    1         0.6144889030E+00      0.1410583021E+01
          0                 2           2             4    7     1      -0.1135586446E-02       4    7    1        -0.6144904854E-01      0.1404985575E+00
          0                 3           2             4    7     1      -0.3467704526E-01       5    8    1        -0.1862656526E+01      0.4581628539E+01
          0                 4           2             4    7     1       0.3617301322E-01       5    8    1         0.1995993652E+01      0.4889142654E+01
          0                 5           2             4    7     1      -0.1439707546E-02       5    8    1        -0.8166974474E-01      0.2000317307E+00
          0                 6           1             4    7     1       0.1776538439E-04       5    8    1         0.1035911091E-02      0.2537164839E-02

    ------------------------------------------------
       NWT REQUIRED            6 OUTER ITERATIONS 
       AND A TOTAL OF         11 INNER ITERATIONS.
    ------------------------------------------------

 NO OUTPUT CONTROL FOR STRESS PERIOD   10   TIME STEP   27
 
 SOLVING FOR HEAD 
                                                   Max.-Head-Change                         Max.-Flux-Residual
  Residual-Control   Outer-Iter.   Inner-Iter.     Column Row Layer    Maximum-Head-Change  Column Row Layer    Maximum-Flux-Residual          L2-NORM 
          0                 1           2             4    7     1       0.1152255433E-01       4    7    1         0.6065868493E+00      0.1387968902E+01
          0                 2           2             4    7     1      -0.1120832714E-02       4    7    1        -0.6065884253E-01      0.1382433355E+00
          0                 3           2             4    7     1      -0.3467937347E-01       5    8    1        -0.1862791515E+01      0.4581947123E+01
          0                 4           2             4    7     1       0.3617443200E-01       5    8    1         0.1996073066E+01      0.4889336717E+01
          0                 5           2             4    7     1      -0.1439764015E-02       5    8    1        -0.8167299352E-01      0.2000396645E+00
          0                 6           1             4    7     1       0.1776608203E-04       5    8    1         0.1035952261E-02      0.2537266644E-02

    ------------------------------------------------
       NWT REQUIRED            6 OUTER ITERATIONS 
       AND A TOTAL OF         11 INNER ITERATIONS.
    ------------------------------------------------

 NO OUTPUT CONTROL FOR STRESS PERIOD   10   TIME STEP   28
 
 SOLVING FOR HEAD 
                                                   Max.-Head-Change                         Max.-Flux-Residual
  Residual-Control   Outer-Iter.   Inner-Iter.     Column Row Layer    Maximum-Head-Change  Column Row Layer    Maximum-Flux-Residual          L2-NORM 
          0                 1           2             4    7     1       0.1137148063E-01       4    7    1         0.5987079177E+00      0.1366158380E+01
          0                 2           2             4    7     1      -0.1106137347E-02       4    7    1        -0.5987094845E-01      0.1360701299E+00
          0                 3           2             4    7     1      -0.3468165979E-01       5    8    1        -0.1862921840E+01      0.4582257305E+01
          0                 4           2             4    7     1       0.3617581115E-01       5    8    1         0.1996138786E+01      0.4889515885E+01
          0                 5           2             4    7     1      -0.1439818906E-02       5    8    1        -0.8166432656E-01      0.2000341945E+00
          0                 6           1             4    7     1       0.1776675883E-04       4    8    1         0.1035718976E-02      0.2536957962E-02

    ------------------------------------------------
       NWT REQUIRED            6 OUTER ITERATIONS 
       AND A TOTAL OF         11 INNER ITERATIONS.
    ------------------------------------------------

 NO OUTPUT CONTROL FOR STRESS PERIOD   10   TIME STEP   29
 
 SOLVING FOR HEAD 
                                                   Max.-Head-Change                         Max.-Flux-Residual
  Residual-Control   Outer-Iter.   Inner-Iter.     Column Row Layer    Maximum-Head-Change  Column Row Layer    Maximum-Flux-Residual          L2-NORM 
          0                 1           2             4    7     1       0.1122088490E-01       4    7    1         0.5908453116E+00      0.1345106153E+01
          0                 2           2             4    7     1      -0.1091488471E-02       4    7    1        -0.5908468666E-01      0.1339634045E+00
          0                 3           2             4    7     1      -0.3468391172E-01       5    8    1        -0.1863047904E+01      0.4582558867E+01
          0                 4           2             4    7     1       0.3617715766E-01       5    8    1         0.1996213892E+01      0.4889699698E+01
          0                 5           2             4    7     1      -0.1439872498E-02       5    8    1        -0.8166739931E-01      0.2000417108E+00
          0                 6           1             4    7     1       0.1776742017E-04       4    8    1         0.1035757894E-02      0.2537049537E-02

    ------------------------------------------------
       NWT REQUIRED            6 OUTER ITERATIONS 
       AND A TOTAL OF         11 INNER ITERATIONS.
    ------------------------------------------------

 NO OUTPUT CONTROL FOR STRESS PERIOD   10   TIME STEP   30



 STREAM LISTING     PERIOD     10   STEP       30

 LAYER ROW COL. STREAM  RCH.  FLOW INTO     FLOW TO   FLOW OUT OF   OVRLND.     DIRECT     STREAM       STREAM     STREAM     STREAM   STREAMBED  STREAMBED
                SEG.NO.  NO.  STRM. RCH.    AQUIFER    STRM. RCH.    RUNOFF     PRECIP       ET          HEAD       DEPTH      WIDTH   CONDCTNC.   GRADIENT

   1    1    1     1     1    3.5250E+01  2.8720E-01   3.4963E+01  0.000E+00  0.000E+00  0.000E+00  1.09434E+03  1.294E+00  1.486E+01  6.688E-02  1.431E+00
   1    2    2     1     2    3.4963E+01  4.4467E-01   3.4518E+01  0.000E+00  0.000E+00  0.000E+00  1.08935E+03  1.291E+00  1.480E+01  1.036E-01  1.430E+00
   1    3    3     1     3    3.4518E+01  3.7912E-01   3.4139E+01  0.000E+00  0.000E+00  0.000E+00  1.08371E+03  1.288E+00  1.474E+01  8.841E-02  1.429E+00
   1    3    4     1     4    3.4139E+01  3.4902E-01   3.3790E+01  0.000E+00  0.000E+00  0.000E+00  1.07869E+03  1.285E+00  1.468E+01  8.145E-02  1.428E+00
   1    4    5     2     1    3.1790E+01  3.4244E-01   3.1447E+01  0.000E+00  0.000E+00  0.000E+00  1.07332E+03  1.390E+00  1.200E+01  7.800E-02  1.463E+00
   1    5    6     2     2    3.1447E+01  2.6294E-01   3.1184E+01  0.000E+00  0.000E+00  0.000E+00  1.06789E+03  1.382E+00  1.200E+01  6.000E-02  1.461E+00
   1    6    6     2     3    3.1184E+01  2.6252E-01   3.0922E+01  0.000E+00  0.000E+00  0.000E+00  1.06317E+03  1.375E+00  1.200E+01  6.000E-02  1.458E+00
   1    7    6     2     4    3.0922E+01  2.6210E-01   3.0660E+01  0.000E+00  0.000E+00  0.000E+00  1.05844E+03  1.368E+00  1.200E+01  6.000E-02  1.456E+00
   1    8    6     2     5    3.0660E+01  2.6168E-01   3.0398E+01  0.000E+00  0.000E+00  0.000E+00  1.05372E+03  1.361E+00  1.200E+01  6.000E-02  1.454E+00
   1    3    5     3     1    2.0000E+00  2.8252E-01   1.7175E+00  0.000E+00  0.000E+00  0.000E+00  1.07555E+03  1.909E+00  9.636E+00  7.227E-02  1.955E+00
   1    3    6     3     2    1.7175E+00  2.4905E-01   1.4684E+00  0.000E+00  0.000E+00  0.000E+00  1.07264E+03  1.727E+00  8.909E+00  6.682E-02  1.864E+00
   1    3    7     3     3    1.4684E+00  1.9718E-01   1.2712E+00  0.000E+00  0.000E+00  0.000E+00  1.06987E+03  1.555E+00  8.218E+00  5.547E-02  1.777E+00
   1    4    8     3     4    1.2712E+00  2.2567E-01   1.0456E+00  0.000E+00  0.000E+00  0.000E+00  1.06682E+03  1.364E+00  7.455E+00  6.709E-02  1.682E+00
   1    5    8     3     5    1.0456E+00  1.5790E-01   8.8768E-01  0.000E+00  0.000E+00  0.000E+00  1.06362E+03  1.164E+00  6.655E+00  4.991E-02  1.582E+00
   1    6    8     3     6    8.8768E-01  5.5980E-02   8.3170E-01  0.000E+00  0.000E+00  0.000E+00  1.06158E+03  1.036E+00  6.145E+00  1.844E-02  1.518E+00
   1    5   10     4     1    1.0000E+01  9.0919E-02   9.9091E+00  0.000E+00  0.000E+00  0.000E+00  1.07836E+03  6.368E-01  1.000E+01  2.500E-02  1.212E+00
   1    5    9     4     2    9.9091E+00  1.8158E-01   9.7275E+00  0.000E+00  0.000E+00  0.000E+00  1.07154E+03  6.315E-01  1.000E+01  5.000E-02  1.211E+00
   1    6    8     4     3    9.7275E+00  1.2689E-01   9.6006E+00  0.000E+00  0.000E+00  0.000E+00  1.06381E+03  6.256E-01  1.000E+01  3.500E-02  1.209E+00
   1    6    8     5     1    1.0432E+01  2.2686E-01   1.0205E+01  0.000E+00  0.000E+00  0.000E+00  1.05868E+03  6.790E-01  1.542E+01  6.166E-02  1.226E+00
   1    7    7     5     2    1.0205E+01  2.7894E-01   9.9265E+00  0.000E+00  0.000E+00  0.000E+00  1.05417E+03  6.732E-01  1.519E+01  7.594E-02  1.224E+00
   1    8    7     5     3    9.9265E+00  1.9221E-01   9.7343E+00  0.000E+00  0.000E+00  0.000E+00  1.04992E+03  6.676E-01  1.497E+01  5.241E-02  1.223E+00
   1    8    6     5     4    9.7343E+00  1.3577E-01   9.5985E+00  0.000E+00  0.000E+00  0.000E+00  1.04691E+03  6.637E-01  1.482E+01  3.706E-02  1.221E+00
   1    9    6     6     1    2.8802E+01  2.5954E-01   2.8542E+01  0.000E+00  0.000E+00  0.000E+00  1.04405E+03  1.326E+00  1.200E+01  6.000E-02  1.442E+00
   1   10    7     6     2    2.8542E+01  2.5911E-01   2.8283E+01  0.000E+00  0.000E+00  0.000E+00  1.03950E+03  1.318E+00  1.200E+01  6.000E-02  1.439E+00
   1   11    7     6     3    2.8283E+01  2.5868E-01   2.8025E+01  0.000E+00  0.000E+00  0.000E+00  1.03495E+03  1.311E+00  1.200E+01  6.000E-02  1.437E+00
   1   12    7     6     4    2.8025E+01  2.5824E-01   2.7766E+01  0.000E+00  0.000E+00  0.000E+00  1.03040E+03  1.304E+00  1.200E+01  6.000E-02  1.435E+00
   1   13    7     6     5    2.7766E+01  2.2599E-03   2.7764E+01  0.000E+00  0.000E+00  0.000E+00  1.02721E+03  1.300E+00  1.200E+01  2.400E-02  3.139E-02
   1   14    9     7     1    1.5000E+02  1.3358E+00   1.4866E+02  0.000E+00  0.000E+00  0.000E+00  1.03987E+03  2.288E+00  5.529E+01  5.593E-01  7.961E-01
   1   13    8     7     2    1.4866E+02  1.8247E+00   1.4684E+02  0.000E+00  0.000E+00  0.000E+00  1.03478E+03  2.279E+00  5.526E+01  6.148E-01  9.894E-01
   1   13    7     7     3    1.4684E+02  1.4378E+00   1.4540E+02  0.000E+00  0.000E+00  0.000E+00  1.02969E+03  2.271E+00  5.522E+01  5.585E-01  8.582E-01
   1   13    6     8     1    1.7317E+02  8.9239E-01   1.7227E+02  0.000E+00  0.000E+00  0.000E+00  1.02484E+03  2.970E+00  4.306E+01  4.388E-01  6.779E-01
   1   13    5     8     2    1.7227E+02  1.3772E-01   1.7214E+02  0.000E+00  0.000E+00  0.000E+00  1.01859E+03  2.967E+00  4.301E+01  4.383E-01  1.047E-01
   1   13    4     8     3    1.7214E+02 -2.5778E+00   1.7471E+02  0.000E+00  0.000E+00  0.000E+00  1.01235E+03  2.974E+00  4.313E+01  4.395E+00 -1.955E-01
   1   13    3     8     4    1.7471E+02 -3.6953E+00   1.7841E+02  0.000E+00  0.000E+00  0.000E+00  1.00612E+03  2.994E+00  4.342E+01  4.425E+00 -2.784E-01
   1   13    2     8     5    1.7841E+02 -2.5458E+00   1.8095E+02  0.000E+00  0.000E+00  0.000E+00  9.99889E+02  3.014E+00  4.371E+01  4.454E+00 -1.905E-01
   1   13    1     8     6    1.8095E+02 -1.9308E+00   1.8289E+02  0.000E+00  0.000E+00  0.000E+00  9.94903E+02  3.028E+00  4.391E+01  2.685E+00 -2.397E-01
   1    8    6     9     1    1.1195E+01  0.0000E+00   1.1195E+01  0.000E+00  0.000E+00  0.000E+00  1.08117E+03  2.425E+00  4.000E+00  0.000E+00  1.808E+00
   1    8    5     9     2    1.1195E+01  0.0000E+00   1.1195E+01  0.000E+00  0.000E+00  0.000E+00  1.08067E+03  2.425E+00  4.000E+00  0.000E+00  1.808E+00





UNSATURATED ZONE PACKAGE VOLUMETRIC BUDGET FOR  TIME STEP    30 STRESS PERIOD   10
  ------------------------------------------------------------------------------



     CUMULATIVE VOLUMES      L**3       RATES FOR THIS TIME STEP      L**3/T
     ------------------                 ------------------------

           IN:                                      IN:
           ---                                      ---
        INFILTRATION =   464093842.3098          INFILTRATION =          12.0424

          OUT:                                     OUT:
          ----                                     ----
              UZF ET =   423861539.7550                UZF ET =          12.0675
        UZF RECHARGE =       73224.0000          UZF RECHARGE =       0.0000E+00

            IN - OUT =    40159078.5547              IN - OUT =      -2.5070E-02

          STORAGE:                                 STORAGE:
          --------                                 --------
      STORAGE CHANGE =    40174678.6176        STORAGE CHANGE =      -2.5071E-02

 PERCENT DISCREPANCY IS DIFFERENCE BETWEEN IN-OUT MINUS CHANGE IN STORAGE
 DIVIDED BY THE AVERAGE OF IN AND OUT TIMES 100

 PERCENT DISCREPANCY =          -0.00     PERCENT DISCREPANCY =           0.00






1
  VOLUMETRIC BUDGET FOR AGRICULTURAL FIELDS AT  END OF TIME STEP   30, STRESS PERIOD  10
  ------------------------------------------------------------------------------

     CUMULATIVE VOLUMES      L**3       RATES FOR THIS TIME STEP      L**3/T
     ------------------                 ------------------------

           IN:                                      IN:
           ---                                      ---
           AG WELLS      =    86996240.0000             AG WELLS      =           0.0000
      DIVERSION SEGMENTS =   356960448.0000        DIVERSION SEGMENTS =          11.1947
           GW IRRIGATION =           0.0000             GW IRRIGATION =           0.0000
           SW IRRIGATION =           0.0000             SW IRRIGATION =           0.0000
        SYSTEM LOSSES GW =           0.0000          SYSTEM LOSSES GW =           0.0000
        SYSTEM LOSSES SW =           0.0000          SYSTEM LOSSES SW =           0.0000

                TOTAL IN =   443956672.0000                  TOTAL IN =          11.1947

          OUT:                                     OUT:
          ----                                     ----
           AG WELLS      =           0.0000             AG WELLS      =           0.0000
      DIVERSION SEGMENTS =           0.0000        DIVERSION SEGMENTS =           0.0000
           GW IRRIGATION =    86996240.0000             GW IRRIGATION =           0.0000
           SW IRRIGATION =   356967584.0000             SW IRRIGATION =          11.1949
        SYSTEM LOSSES GW =           0.0000          SYSTEM LOSSES GW =           0.0000
        SYSTEM LOSSES SW =           0.0000          SYSTEM LOSSES SW =           0.0000

               TOTAL OUT =   443963840.0000                 TOTAL OUT =          11.1949

                IN - OUT =       -7168.0000                  IN - OUT =      -2.2316E-04

     PERCENT DISCREPANCY =          -0.00         PERCENT DISCREPANCY =          -0.00



1
  VOLUMETRIC BUDGET FOR ENTIRE MODEL AT END OF TIME STEP   30, STRESS PERIOD  10
  ------------------------------------------------------------------------------

     CUMULATIVE VOLUMES      L**3       RATES FOR THIS TIME STEP      L**3/T
     ------------------                 ------------------------

           IN:                                      IN:
           ---                                      ---
             STORAGE     =   130702328.0000               STORAGE     =           2.4691
       CONSTANT HEAD     =           0.0000         CONSTANT HEAD     =           0.0000
     HEAD DEP BOUNDS     =     6787971.0000       HEAD DEP BOUNDS     =           0.2858
      STREAM LEAKAGE     =   288854624.0000        STREAM LEAKAGE     =          11.9194
        UZF RECHARGE     =       73223.9531          UZF RECHARGE     =           0.0000
               GW ET     =           0.0000                 GW ET     =           0.0000
     SURFACE LEAKAGE     =           0.0000       SURFACE LEAKAGE     =           0.0000
           AG WELLS      =           0.0000             AG WELLS      =           0.0000

                TOTAL IN =   426418144.0000                  TOTAL IN =          14.6742

          OUT:                                     OUT:
          ----                                     ----
             STORAGE     =    74607480.0000               STORAGE     =           3.6348
       CONSTANT HEAD     =           0.0000         CONSTANT HEAD     =           0.0000
     HEAD DEP BOUNDS     =     6913785.0000       HEAD DEP BOUNDS     =           0.2897
      STREAM LEAKAGE     =   256367248.0000        STREAM LEAKAGE     =          10.7497
        UZF RECHARGE     =           0.0000          UZF RECHARGE     =           0.0000
               GW ET     =     1534490.7500                 GW ET     =           0.0000
     SURFACE LEAKAGE     =           0.0000       SURFACE LEAKAGE     =           0.0000
           AG WELLS      =    86996240.0000             AG WELLS      =           0.0000

               TOTAL OUT =   426419264.0000                 TOTAL OUT =          14.6741

                IN - OUT =       -1120.0000                  IN - OUT =       9.5367E-05

     PERCENT DISCREPANCY =          -0.00         PERCENT DISCREPANCY =           0.00






         TIME SUMMARY AT END OF TIME STEP   30 IN STRESS PERIOD   10
                    SECONDS     MINUTES      HOURS       DAYS        YEARS
                    -----------------------------------------------------------
   TIME STEP LENGTH  87667.      1461.1      24.352      1.0147     2.77799E-03
 STRESS PERIOD TIME 2.63000E+06  43833.      730.56      30.440     8.33397E-02
         TOTAL TIME 2.37564E+07 3.95940E+05  6599.0      274.96     0.75279    
1
1
                            STRESS PERIOD NO.   11, LENGTH =   2630000.    
                            -----------------------------------------------

                              NUMBER OF TIME STEPS =    30

                               MULTIPLIER FOR DELT =     1.000

                            INITIAL TIME STEP SIZE =   87666.66    

 REUSING NON-PARAMETER GHB CELLS FROM LAST STRESS PERIOD

      2 GHB CELLS

 REUSING STREAM SEGMENT DATA FROM LAST STRESS PERIOD



            AREAL INFILTRATION RATE
 READING ON UNIT   19 WITH FORMAT: (FREE)              

            1           2           3           4           5           6           7           8           9          10
 ........................................................................................................................
   1   1.0000E-10  2.0000E-10   0.000       0.000       0.000       0.000       0.000       0.000       0.000       0.000    
   2   2.0000E-10  1.0000E-10  2.0000E-10   0.000       0.000      8.0000E-10  8.0000E-10  5.0000E-10   0.000       0.000    
   3    0.000      5.0000E-10  1.0000E-10  1.0000E-10  8.0000E-10  8.0000E-10  5.0000E-10  5.0000E-10   0.000       0.000    
   4   8.0000E-10  5.0000E-10  1.0000E-10  1.0000E-10  1.0000E-10  1.0000E-10  1.0000E-10  1.0000E-10  2.0000E-10   0.000    
   5   8.0000E-10  5.0000E-10  1.0000E-10  1.0000E-10  1.0000E-10  1.0000E-10  1.0000E-10  1.0000E-10  1.0000E-10  1.0000E-10
   6   8.0000E-10  5.0000E-10  5.0000E-10  2.0000E-10  2.0000E-10  1.0000E-10  1.0000E-10  1.0000E-10  1.0000E-10  5.0000E-10
   7   8.0000E-10  5.0000E-10  5.0000E-10  2.0000E-10  2.0000E-10  1.0000E-10  1.0000E-10  2.0000E-10  2.0000E-10   0.000    
   8    0.000      5.0000E-10  5.0000E-10  2.0000E-10  2.0000E-10  1.0000E-10  1.0000E-10  2.0000E-10  5.0000E-10   0.000    
   9    0.000      5.0000E-10  5.0000E-10  2.0000E-10  2.0000E-10  1.0000E-10  1.0000E-10  2.0000E-10  5.0000E-10   0.000    
  10    0.000      5.0000E-10  5.0000E-10  2.0000E-10  2.0000E-10  1.0000E-10  1.0000E-10  2.0000E-10  5.0000E-10  8.0000E-10
  11    0.000      1.0000E-10  1.0000E-10  1.0000E-10  1.0000E-10  1.0000E-10  1.0000E-10  2.0000E-10  5.0000E-10   0.000    
  12   1.0000E-10  1.0000E-10  1.0000E-10  1.0000E-10  1.0000E-10  1.0000E-10  1.0000E-10  1.0000E-10  2.0000E-10   0.000    
  13   1.0000E-10  1.0000E-10  2.0000E-10  2.0000E-10  2.0000E-10  2.0000E-10  2.0000E-10  1.0000E-10  1.0000E-10   0.000    
  14    0.000      2.0000E-10  5.0000E-10  5.0000E-10  5.0000E-10  5.0000E-10  5.0000E-10  2.0000E-10  1.0000E-10   0.000    
  15    0.000       0.000      8.0000E-10  8.0000E-10  8.0000E-10  8.0000E-10   0.000       0.000       0.000       0.000    

                  ET RATE =  5.000000E-09

 USING ET EXTINCTION DEPTH FROM PREVIOUS STRESS PERIOD. CURRENT PERIOD IS:      11

 USING EXTINCTION WATER CONTENT FROM PREVIOUS STRESS PERIOD. CURRENT PERIOD IS:      11

 USING AIR ENTRY PRESSURE FROM PREVIOUS STRESS PERIOD. CURRENT PERIOD IS:      11

 USING ROOT PRESSURE HEAD FROM PREVIOUS STRESS PERIOD. CURRENT PERIOD IS:      11

 USING ROOT ACTIVITY FROM PREVIOUS STRESS PERIOD. CURRENT PERIOD IS:      11

 PROCESSING AG STRESS PERIOD DATA

 READING AG STRESS PERIOD DATA

 READING IRRIGATION SEGMENT

 READING IRRIGATION WELL

 READING SUPPLEMENTAL WELL

 END PROCESSING AG STRESS PERIOD DATA OPTIONS
 
 SOLVING FOR HEAD 
                                                   Max.-Head-Change                         Max.-Flux-Residual
  Residual-Control   Outer-Iter.   Inner-Iter.     Column Row Layer    Maximum-Head-Change  Column Row Layer    Maximum-Flux-Residual          L2-NORM 
          0                 1           2             4    7     1       0.1107142011E-01       4    7    1         0.5830370599E+00      0.1268782220E+01
          0                 2           2             4    7     1      -0.1076949403E-02       4    7    1        -0.5830384955E-01      0.1266352929E+00
          0                 3           1             4    7     1       0.7333624101E-04       4    7    1         0.4081269882E-02      0.8842491855E-02

    ------------------------------------------------
       NWT REQUIRED            3 OUTER ITERATIONS 
       AND A TOTAL OF          5 INNER ITERATIONS.
    ------------------------------------------------

 NO OUTPUT CONTROL FOR STRESS PERIOD   11   TIME STEP    1
 
 SOLVING FOR HEAD 
                                                   Max.-Head-Change                         Max.-Flux-Residual
  Residual-Control   Outer-Iter.   Inner-Iter.     Column Row Layer    Maximum-Head-Change  Column Row Layer    Maximum-Flux-Residual          L2-NORM 
          0                 1           2             4    7     1       0.1092257684E-01       4    7    1         0.5752551956E+00      0.1214404534E+01
          0                 2           2             4    7     1      -0.1062470987E-02       4    7    1        -0.5752566157E-01      0.1213965058E+00
          0                 3           1             4    7     1       0.7235031459E-04       4    7    1         0.4026796708E-02      0.8493707667E-02

    ------------------------------------------------
       NWT REQUIRED            3 OUTER ITERATIONS 
       AND A TOTAL OF          5 INNER ITERATIONS.
    ------------------------------------------------

 NO OUTPUT CONTROL FOR STRESS PERIOD   11   TIME STEP    2
 
 SOLVING FOR HEAD 
                                                   Max.-Head-Change                         Max.-Flux-Residual
  Residual-Control   Outer-Iter.   Inner-Iter.     Column Row Layer    Maximum-Head-Change  Column Row Layer    Maximum-Flux-Residual          L2-NORM 
          0                 1           2             4    7     1       0.1077506964E-01       4    7    1         0.5675378246E+00      0.1194201911E+01
          0                 2           2             4    7     1      -0.1048122534E-02       4    7    1        -0.5675392280E-01      0.1193817378E+00
          0                 3           1             4    7     1       0.7137323834E-04       4    7    1         0.3972774992E-02      0.8353122025E-02

    ------------------------------------------------
       NWT REQUIRED            3 OUTER ITERATIONS 
       AND A TOTAL OF          5 INNER ITERATIONS.
    ------------------------------------------------

 NO OUTPUT CONTROL FOR STRESS PERIOD   11   TIME STEP    3
 
 SOLVING FOR HEAD 
                                                   Max.-Head-Change                         Max.-Flux-Residual
  Residual-Control   Outer-Iter.   Inner-Iter.     Column Row Layer    Maximum-Head-Change  Column Row Layer    Maximum-Flux-Residual          L2-NORM 
          0                 1           2             4    7     1       0.1062845027E-01       4    7    1         0.5598601542E+00      0.1174684745E+01
          0                 2           2             4    7     1      -0.1033860439E-02       4    7    1        -0.5598615389E-01      0.1174348670E+00
          0                 3           1             4    7     1       0.7040204294E-04       4    7    1         0.3919031150E-02      0.8217350907E-02

    ------------------------------------------------
       NWT REQUIRED            3 OUTER ITERATIONS 
       AND A TOTAL OF          5 INNER ITERATIONS.
    ------------------------------------------------

 NO OUTPUT CONTROL FOR STRESS PERIOD   11   TIME STEP    4
 
 SOLVING FOR HEAD 
                                                   Max.-Head-Change                         Max.-Flux-Residual
  Residual-Control   Outer-Iter.   Inner-Iter.     Column Row Layer    Maximum-Head-Change  Column Row Layer    Maximum-Flux-Residual          L2-NORM 
          0                 1           2             4    7     1       0.1048309332E-01       4    7    1         0.5522433050E+00      0.1155792988E+01
          0                 2           2             4    7     1      -0.1019721142E-02       4    7    1        -0.5522446701E-01      0.1155498230E+00
          0                 3           1             4    7     1       0.6943920944E-04       4    7    1         0.3865713072E-02      0.8085793155E-02

    ------------------------------------------------
       NWT REQUIRED            3 OUTER ITERATIONS 
       AND A TOTAL OF          5 INNER ITERATIONS.
    ------------------------------------------------

 NO OUTPUT CONTROL FOR STRESS PERIOD   11   TIME STEP    5
 
 SOLVING FOR HEAD 
                                                   Max.-Head-Change                         Max.-Flux-Residual
  Residual-Control   Outer-Iter.   Inner-Iter.     Column Row Layer    Maximum-Head-Change  Column Row Layer    Maximum-Flux-Residual          L2-NORM 
          0                 1           2             4    7     1       0.1033908638E-01       4    7    1         0.5446919117E+00      0.1137515038E+01
          0                 2           2             4    7     1      -0.1005713162E-02       4    7    1        -0.5446932561E-01      0.1137256387E+00
          0                 3           1             4    7     1       0.6848531841E-04       4    7    1         0.3812853159E-02      0.7958337588E-02

    ------------------------------------------------
       NWT REQUIRED            3 OUTER ITERATIONS 
       AND A TOTAL OF          5 INNER ITERATIONS.
    ------------------------------------------------

 NO OUTPUT CONTROL FOR STRESS PERIOD   11   TIME STEP    6
 
 SOLVING FOR HEAD 
                                                   Max.-Head-Change                         Max.-Flux-Residual
  Residual-Control   Outer-Iter.   Inner-Iter.     Column Row Layer    Maximum-Head-Change  Column Row Layer    Maximum-Flux-Residual          L2-NORM 
          0                 1           2             4    7     1       0.1019649258E-01       4    7    1         0.5372105159E+00      0.1119788272E+01
          0                 2           2             4    7     1      -0.9918426404E-03       4    7    1        -0.5372118385E-01      0.1119561372E+00
          0                 3           1             4    7     1       0.6754078781E-04       4    7    1         0.3760483244E-02      0.7834780839E-02

    ------------------------------------------------
       NWT REQUIRED            3 OUTER ITERATIONS 
       AND A TOTAL OF          5 INNER ITERATIONS.
    ------------------------------------------------

 NO OUTPUT CONTROL FOR STRESS PERIOD   11   TIME STEP    7
 
 SOLVING FOR HEAD 
                                                   Max.-Head-Change                         Max.-Flux-Residual
  Residual-Control   Outer-Iter.   Inner-Iter.     Column Row Layer    Maximum-Head-Change  Column Row Layer    Maximum-Flux-Residual          L2-NORM 
          0                 1           2             4    7     1       0.1005538645E-01       4    7    1         0.5298023902E+00      0.1102608632E+01
          0                 2           2             4    7     1      -0.9781168276E-03       4    7    1        -0.5298036900E-01      0.1102409915E+00
          0                 3           1             4    7     1       0.6660611110E-04       4    7    1         0.3708626195E-02      0.7715022712E-02

    ------------------------------------------------
       NWT REQUIRED            3 OUTER ITERATIONS 
       AND A TOTAL OF          5 INNER ITERATIONS.
    ------------------------------------------------

 NO OUTPUT CONTROL FOR STRESS PERIOD   11   TIME STEP    8
 
 SOLVING FOR HEAD 
                                                   Max.-Head-Change                         Max.-Flux-Residual
  Residual-Control   Outer-Iter.   Inner-Iter.     Column Row Layer    Maximum-Head-Change  Column Row Layer    Maximum-Flux-Residual          L2-NORM 
          0                 1           2             4    7     1       0.9915826758E-02       4    7    1         0.5224713997E+00      0.1085939884E+01
          0                 2           2             4    7     1      -0.9645414402E-03       4    7    1        -0.5224726764E-01      0.1085765226E+00
          0                 3           1             4    7     1       0.6568167784E-04       4    7    1         0.3657309092E-02      0.7598719569E-02

    ------------------------------------------------
       NWT REQUIRED            3 OUTER ITERATIONS 
       AND A TOTAL OF          5 INNER ITERATIONS.
    ------------------------------------------------

 NO OUTPUT CONTROL FOR STRESS PERIOD   11   TIME STEP    9
 
 SOLVING FOR HEAD 
                                                   Max.-Head-Change                         Max.-Flux-Residual
  Residual-Control   Outer-Iter.   Inner-Iter.     Column Row Layer    Maximum-Head-Change  Column Row Layer    Maximum-Flux-Residual          L2-NORM 
          0                 1           2             4    7     1       0.9777850307E-02       4    7    1         0.5152205906E+00      0.1069730002E+01
          0                 2           2             4    7     1      -0.9511200592E-03       4    7    1        -0.5152218439E-01      0.1069575104E+00
          0                 3           1             4    7     1       0.6476773205E-04       4    7    1         0.3606553290E-02      0.7485434369E-02

    ------------------------------------------------
       NWT REQUIRED            3 OUTER ITERATIONS 
       AND A TOTAL OF          5 INNER ITERATIONS.
    ------------------------------------------------

 NO OUTPUT CONTROL FOR STRESS PERIOD   11   TIME STEP   10
 
 SOLVING FOR HEAD 
                                                   Max.-Head-Change                         Max.-Flux-Residual
  Residual-Control   Outer-Iter.   Inner-Iter.     Column Row Layer    Maximum-Head-Change  Column Row Layer    Maximum-Flux-Residual          L2-NORM 
          0                 1           2             4    7     1       0.9641509206E-02       4    7    1         0.5080518711E+00      0.1053993682E+01
          0                 2           2             4    7     1      -0.9378577520E-03       4    7    1        -0.5080531005E-01      0.1053858930E+00
          0                 3           1             4    7     1       0.6386461856E-04       4    7    1         0.3556372080E-02      0.7375804603E-02

    ------------------------------------------------
       NWT REQUIRED            3 OUTER ITERATIONS 
       AND A TOTAL OF          5 INNER ITERATIONS.
    ------------------------------------------------

 NO OUTPUT CONTROL FOR STRESS PERIOD   11   TIME STEP   11
 
 SOLVING FOR HEAD 
                                                   Max.-Head-Change                         Max.-Flux-Residual
  Residual-Control   Outer-Iter.   Inner-Iter.     Column Row Layer    Maximum-Head-Change  Column Row Layer    Maximum-Flux-Residual          L2-NORM 
          0                 1           2             4    7     1       0.9506839314E-02       4    7    1         0.5009679433E+00      0.1038689675E+01
          0                 2           2             4    7     1      -0.9247580074E-03       4    7    1        -0.5009691484E-01      0.1038572074E+00
          0                 3           1             4    7     1       0.6297257452E-04       4    7    1         0.3506784409E-02      0.7268917035E-02

    ------------------------------------------------
       NWT REQUIRED            3 OUTER ITERATIONS 
       AND A TOTAL OF          5 INNER ITERATIONS.
    ------------------------------------------------

 NO OUTPUT CONTROL FOR STRESS PERIOD   11   TIME STEP   12
 
 SOLVING FOR HEAD 
                                                   Max.-Head-Change                         Max.-Flux-Residual
  Residual-Control   Outer-Iter.   Inner-Iter.     Column Row Layer    Maximum-Head-Change  Column Row Layer    Maximum-Flux-Residual          L2-NORM 
          0                 1           2             4    7     1       0.9373868307E-02       4    7    1         0.4939706662E+00      0.1023799734E+01
          0                 2           2             4    7     1      -0.9118235181E-03       4    7    1        -0.4939718469E-01      0.1023695705E+00
          0                 3           1             4    7     1       0.6209178476E-04       4    7    1         0.3457803319E-02      0.7164918934E-02

    ------------------------------------------------
       NWT REQUIRED            3 OUTER ITERATIONS 
       AND A TOTAL OF          5 INNER ITERATIONS.
    ------------------------------------------------

 NO OUTPUT CONTROL FOR STRESS PERIOD   11   TIME STEP   13
 
 SOLVING FOR HEAD 
                                                   Max.-Head-Change                         Max.-Flux-Residual
  Residual-Control   Outer-Iter.   Inner-Iter.     Column Row Layer    Maximum-Head-Change  Column Row Layer    Maximum-Flux-Residual          L2-NORM 
          0                 1           2             4    7     1       0.9242352546E-02       4    7    1         0.4870466838E+00      0.1009296850E+01
          0                 2           2             4    7     1      -0.8990305837E-03       4    7    1        -0.4870478397E-01      0.1009205452E+00
          0                 3           1             4    7     1       0.6122063328E-04       4    7    1         0.3409335251E-02      0.7063594652E-02

    ------------------------------------------------
       NWT REQUIRED            3 OUTER ITERATIONS 
       AND A TOTAL OF          5 INNER ITERATIONS.
    ------------------------------------------------

 NO OUTPUT CONTROL FOR STRESS PERIOD   11   TIME STEP   14
 
 SOLVING FOR HEAD 
                                                   Max.-Head-Change                         Max.-Flux-Residual
  Residual-Control   Outer-Iter.   Inner-Iter.     Column Row Layer    Maximum-Head-Change  Column Row Layer    Maximum-Flux-Residual          L2-NORM 
          0                 1           2             4    7     1       0.9112869461E-02       4    7    1         0.4802277362E+00      0.9951834472E+00
          0                 2           2             4    7     1      -0.8864353741E-03       4    7    1        -0.4802288676E-01      0.9951029806E-01
          0                 3           1             4    7     1       0.6036294686E-04       4    7    1         0.3361602457E-02      0.6964979922E-02

    ------------------------------------------------
       NWT REQUIRED            3 OUTER ITERATIONS 
       AND A TOTAL OF          5 INNER ITERATIONS.
    ------------------------------------------------

 NO OUTPUT CONTROL FOR STRESS PERIOD   11   TIME STEP   15
 
 SOLVING FOR HEAD 
                                                   Max.-Head-Change                         Max.-Flux-Residual
  Residual-Control   Outer-Iter.   Inner-Iter.     Column Row Layer    Maximum-Head-Change  Column Row Layer    Maximum-Flux-Residual          L2-NORM 
          0                 1           2             4    7     1       0.8985146563E-02       4    7    1         0.4734993898E+00      0.9814242299E+00
          0                 2           2             4    7     1      -0.8740113823E-03       4    7    1        -0.4735004966E-01      0.9813542640E-01
          0                 3           1             4    7     1       0.5951691967E-04       4    7    1         0.3314503874E-02      0.6868836522E-02

    ------------------------------------------------
       NWT REQUIRED            3 OUTER ITERATIONS 
       AND A TOTAL OF          5 INNER ITERATIONS.
    ------------------------------------------------

 NO OUTPUT CONTROL FOR STRESS PERIOD   11   TIME STEP   16
 
 SOLVING FOR HEAD 
                                                   Max.-Head-Change                         Max.-Flux-Residual
  Residual-Control   Outer-Iter.   Inner-Iter.     Column Row Layer    Maximum-Head-Change  Column Row Layer    Maximum-Flux-Residual          L2-NORM 
          0                 1           2             4    7     1       0.8859205378E-02       4    7    1         0.4668623073E+00      0.9680301364E+00
          0                 2           2             4    7     1      -0.8617607030E-03       4    7    1        -0.4668633898E-01      0.9679677437E-01
          0                 3           1             4    7     1       0.5868269396E-04       4    7    1         0.3268044115E-02      0.6775156002E-02

    ------------------------------------------------
       NWT REQUIRED            3 OUTER ITERATIONS 
       AND A TOTAL OF          5 INNER ITERATIONS.
    ------------------------------------------------

 NO OUTPUT CONTROL FOR STRESS PERIOD   11   TIME STEP   17
 
 SOLVING FOR HEAD 
                                                   Max.-Head-Change                         Max.-Flux-Residual
  Residual-Control   Outer-Iter.   Inner-Iter.     Column Row Layer    Maximum-Head-Change  Column Row Layer    Maximum-Flux-Residual          L2-NORM 
          0                 1           2             4    7     1       0.8735043036E-02       4    7    1         0.4603176048E+00      0.9549487361E+00
          0                 2           2             4    7     1      -0.8496830565E-03       4    7    1        -0.4603186630E-01      0.9548935590E-01
          0                 3           1             4    7     1       0.5786025103E-04       4    7    1         0.3222231024E-02      0.6683722191E-02

    ------------------------------------------------
       NWT REQUIRED            3 OUTER ITERATIONS 
       AND A TOTAL OF          5 INNER ITERATIONS.
    ------------------------------------------------

 NO OUTPUT CONTROL FOR STRESS PERIOD   11   TIME STEP   18
 
 SOLVING FOR HEAD 
                                                   Max.-Head-Change                         Max.-Flux-Residual
  Residual-Control   Outer-Iter.   Inner-Iter.     Column Row Layer    Maximum-Head-Change  Column Row Layer    Maximum-Flux-Residual          L2-NORM 
          0                 1           2             4    7     1       0.8612669857E-02       4    7    1         0.4538651332E+00      0.9421965841E+00
          0                 2           2             4    7     1      -0.8377794473E-03       4    7    1        -0.4538661673E-01      0.9421481823E-01
          0                 3           1             4    7     1       0.5704965975E-04       4    7    1         0.3177063548E-02      0.6594557483E-02

    ------------------------------------------------
       NWT REQUIRED            3 OUTER ITERATIONS 
       AND A TOTAL OF          5 INNER ITERATIONS.
    ------------------------------------------------

 NO OUTPUT CONTROL FOR STRESS PERIOD   11   TIME STEP   19
 
 SOLVING FOR HEAD 
                                                   Max.-Head-Change                         Max.-Flux-Residual
  Residual-Control   Outer-Iter.   Inner-Iter.     Column Row Layer    Maximum-Head-Change  Column Row Layer    Maximum-Flux-Residual          L2-NORM 
          0                 1           2             4    7     1       0.8492087498E-02       4    7    1         0.4475054278E+00      0.9297559493E+00
          0                 2           2             4    7     1      -0.8260500364E-03       4    7    1        -0.4475064379E-01      0.9297140055E-01
          0                 3           1             4    7     1       0.5625093077E-04       4    7    1         0.3132545456E-02      0.6507647991E-02

    ------------------------------------------------
       NWT REQUIRED            3 OUTER ITERATIONS 
       AND A TOTAL OF          5 INNER ITERATIONS.
    ------------------------------------------------

 NO OUTPUT CONTROL FOR STRESS PERIOD   11   TIME STEP   20
 
 SOLVING FOR HEAD 
                                                   Max.-Head-Change                         Max.-Flux-Residual
  Residual-Control   Outer-Iter.   Inner-Iter.     Column Row Layer    Maximum-Head-Change  Column Row Layer    Maximum-Flux-Residual          L2-NORM 
          0                 1           2             4    7     1       0.8373566573E-02       4    7    1         0.4412533670E+00      0.9176193548E+00
          0                 2           2             4    7     1      -0.8145211479E-03       4    7    1        -0.4412543538E-01      0.9175821380E-01
          0                 3           1             4    7     1       0.5546585689E-04       4    7    1         0.3088780887E-02      0.6422699145E-02

    ------------------------------------------------
       NWT REQUIRED            3 OUTER ITERATIONS 
       AND A TOTAL OF          5 INNER ITERATIONS.
    ------------------------------------------------

 NO OUTPUT CONTROL FOR STRESS PERIOD   11   TIME STEP   21
 
 SOLVING FOR HEAD 
                                                   Max.-Head-Change                         Max.-Flux-Residual
  Residual-Control   Outer-Iter.   Inner-Iter.     Column Row Layer    Maximum-Head-Change  Column Row Layer    Maximum-Flux-Residual          L2-NORM 
          0                 1           2             4    7     1       0.8256541758E-02       4    7    1         0.4350786038E+00      0.9057485049E+00
          0                 2           2             4    7     1      -0.8031377895E-03       4    7    1        -0.4350795672E-01      0.9057158928E-01
          0                 3           1             4    7     1       0.5469069228E-04       4    7    1         0.3045557364E-02      0.6339711227E-02

    ------------------------------------------------
       NWT REQUIRED            3 OUTER ITERATIONS 
       AND A TOTAL OF          5 INNER ITERATIONS.
    ------------------------------------------------

 NO OUTPUT CONTROL FOR STRESS PERIOD   11   TIME STEP   22
 
 SOLVING FOR HEAD 
                                                   Max.-Head-Change                         Max.-Flux-Residual
  Residual-Control   Outer-Iter.   Inner-Iter.     Column Row Layer    Maximum-Head-Change  Column Row Layer    Maximum-Flux-Residual          L2-NORM 
          0                 1           2             4    7     1       0.8141299937E-02       4    7    1         0.4289962048E+00      0.8941646248E+00
          0                 2           2             4    7     1      -0.7919278688E-03       4    7    1        -0.4289971452E-01      0.8941356412E-01
          0                 3           1             4    7     1       0.5392733885E-04       4    7    1         0.3002980423E-02      0.6258642152E-02

    ------------------------------------------------
       NWT REQUIRED            3 OUTER ITERATIONS 
       AND A TOTAL OF          5 INNER ITERATIONS.
    ------------------------------------------------

 NO OUTPUT CONTROL FOR STRESS PERIOD   11   TIME STEP   23
 
 SOLVING FOR HEAD 
                                                   Max.-Head-Change                         Max.-Flux-Residual
  Residual-Control   Outer-Iter.   Inner-Iter.     Column Row Layer    Maximum-Head-Change  Column Row Layer    Maximum-Flux-Residual          L2-NORM 
          0                 1           2             4    7     1       0.8028096694E-02       4    7    1         0.4230210455E+00      0.8828391061E+00
          0                 2           2             4    7     1      -0.7809162469E-03       4    7    1        -0.4230219633E-01      0.8828139505E-01
          0                 3           1             4    7     1       0.5317748882E-04       4    7    1         0.2961154160E-02      0.6179475744E-02

    ------------------------------------------------
       NWT REQUIRED            3 OUTER ITERATIONS 
       AND A TOTAL OF          5 INNER ITERATIONS.
    ------------------------------------------------

 NO OUTPUT CONTROL FOR STRESS PERIOD   11   TIME STEP   24
 
 SOLVING FOR HEAD 
                                                   Max.-Head-Change                         Max.-Flux-Residual
  Residual-Control   Outer-Iter.   Inner-Iter.     Column Row Layer    Maximum-Head-Change  Column Row Layer    Maximum-Flux-Residual          L2-NORM 
          0                 1           2             4    7     1       0.7916643673E-02       4    7    1         0.4171367907E+00      0.8717861354E+00
          0                 2           2             4    7     1      -0.7700748743E-03       4    7    1        -0.4171376863E-01      0.8717636877E-01
          0                 3           1             4    7     1       0.5243923175E-04       4    7    1         0.2919964227E-02      0.6102123891E-02

    ------------------------------------------------
       NWT REQUIRED            3 OUTER ITERATIONS 
       AND A TOTAL OF          5 INNER ITERATIONS.
    ------------------------------------------------

 NO OUTPUT CONTROL FOR STRESS PERIOD   11   TIME STEP   25
 
 SOLVING FOR HEAD 
                                                   Max.-Head-Change                         Max.-Flux-Residual
  Residual-Control   Outer-Iter.   Inner-Iter.     Column Row Layer    Maximum-Head-Change  Column Row Layer    Maximum-Flux-Residual          L2-NORM 
          0                 1           2             4    7     1       0.7806916660E-02       4    7    1         0.4113432828E+00      0.8609558042E+00
          0                 2           2             4    7     1      -0.7594013955E-03       4    7    1        -0.4113441566E-01      0.8609362343E-01
          0                 3           1             4    7     1       0.5171240766E-04       4    7    1         0.2879409509E-02      0.6026358668E-02

    ------------------------------------------------
       NWT REQUIRED            3 OUTER ITERATIONS 
       AND A TOTAL OF          5 INNER ITERATIONS.
    ------------------------------------------------

 NO OUTPUT CONTROL FOR STRESS PERIOD   11   TIME STEP   26
 
 SOLVING FOR HEAD 
                                                   Max.-Head-Change                         Max.-Flux-Residual
  Residual-Control   Outer-Iter.   Inner-Iter.     Column Row Layer    Maximum-Head-Change  Column Row Layer    Maximum-Flux-Residual          L2-NORM 
          0                 1           2             4    7     1       0.7698912279E-02       4    7    1         0.4056392661E+00      0.8503833001E+00
          0                 2           2             4    7     1      -0.7488954826E-03       4    7    1        -0.4056401184E-01      0.8503657353E-01
          0                 3           1             4    7     1       0.5099699430E-04       4    7    1         0.2839481262E-02      0.5952403134E-02

    ------------------------------------------------
       NWT REQUIRED            3 OUTER ITERATIONS 
       AND A TOTAL OF          5 INNER ITERATIONS.
    ------------------------------------------------

 NO OUTPUT CONTROL FOR STRESS PERIOD   11   TIME STEP   27
 
 SOLVING FOR HEAD 
                                                   Max.-Head-Change                         Max.-Flux-Residual
  Residual-Control   Outer-Iter.   Inner-Iter.     Column Row Layer    Maximum-Head-Change  Column Row Layer    Maximum-Flux-Residual          L2-NORM 
          0                 1           2             4    7     1       0.7592622411E-02       4    7    1         0.4000245660E+00      0.8400473182E+00
          0                 2           2             4    7     1      -0.7385563452E-03       4    7    1        -0.4000253970E-01      0.8400319566E-01
          0                 3           1             4    7     1       0.5029293771E-04       4    7    1         0.2800178190E-02      0.5880055147E-02

    ------------------------------------------------
       NWT REQUIRED            3 OUTER ITERATIONS 
       AND A TOTAL OF          5 INNER ITERATIONS.
    ------------------------------------------------

 NO OUTPUT CONTROL FOR STRESS PERIOD   11   TIME STEP   28
 
 SOLVING FOR HEAD 
                                                   Max.-Head-Change                         Max.-Flux-Residual
  Residual-Control   Outer-Iter.   Inner-Iter.     Column Row Layer    Maximum-Head-Change  Column Row Layer    Maximum-Flux-Residual          L2-NORM 
          0                 1           2             4    7     1       0.7488289431E-02       4    7    1         0.3945135560E+00      0.8299262260E+00
          0                 2           2             4    7     1      -0.7284075614E-03       4    7    1        -0.3945143665E-01      0.8299128686E-01
          0                 3           1             4    7     1       0.4960184370E-04       4    7    1         0.2761601010E-02      0.5809270468E-02

    ------------------------------------------------
       NWT REQUIRED            3 OUTER ITERATIONS 
       AND A TOTAL OF          5 INNER ITERATIONS.
    ------------------------------------------------

 NO OUTPUT CONTROL FOR STRESS PERIOD   11   TIME STEP   29
 
 SOLVING FOR HEAD 
                                                   Max.-Head-Change                         Max.-Flux-Residual
  Residual-Control   Outer-Iter.   Inner-Iter.     Column Row Layer    Maximum-Head-Change  Column Row Layer    Maximum-Flux-Residual          L2-NORM 
          0                 1           2             4    7     1       0.7385615183E-02       4    7    1         0.3890892135E+00      0.8200231903E+00
          0                 2           2             4    7     1      -0.7184286303E-03       4    7    1        -0.3890900040E-01      0.8202075452E-01
          0                 3           1             4    7     1       0.4892231569E-04       4    7    1         0.2723630468E-02      0.5741359330E-02

    ------------------------------------------------
       NWT REQUIRED            3 OUTER ITERATIONS 
       AND A TOTAL OF          5 INNER ITERATIONS.
    ------------------------------------------------

 NO OUTPUT CONTROL FOR STRESS PERIOD   11   TIME STEP   30



 STREAM LISTING     PERIOD     11   STEP       30

 LAYER ROW COL. STREAM  RCH.  FLOW INTO     FLOW TO   FLOW OUT OF   OVRLND.     DIRECT     STREAM       STREAM     STREAM     STREAM   STREAMBED  STREAMBED
                SEG.NO.  NO.  STRM. RCH.    AQUIFER    STRM. RCH.    RUNOFF     PRECIP       ET          HEAD       DEPTH      WIDTH   CONDCTNC.   GRADIENT

   1    1    1     1     1    2.6250E+01  2.5084E-01   2.5999E+01  0.000E+00  0.000E+00  0.000E+00  1.09424E+03  1.197E+00  1.328E+01  5.977E-02  1.399E+00
   1    2    2     1     2    2.5999E+01  3.8795E-01   2.5611E+01  0.000E+00  0.000E+00  0.000E+00  1.08925E+03  1.192E+00  1.322E+01  9.255E-02  1.397E+00
   1    3    3     1     3    2.5611E+01  3.3035E-01   2.5281E+01  0.000E+00  0.000E+00  0.000E+00  1.08361E+03  1.187E+00  1.315E+01  7.890E-02  1.396E+00
   1    3    4     1     4    2.5281E+01  3.0378E-01   2.4977E+01  0.000E+00  0.000E+00  0.000E+00  1.07859E+03  1.182E+00  1.309E+01  7.264E-02  1.394E+00
   1    4    5     2     1    2.2977E+01  3.2316E-01   2.2654E+01  0.000E+00  0.000E+00  0.000E+00  1.07308E+03  1.143E+00  1.200E+01  7.800E-02  1.381E+00
   1    5    6     2     2    2.2654E+01  2.4807E-01   2.2406E+01  0.000E+00  0.000E+00  0.000E+00  1.06764E+03  1.134E+00  1.200E+01  6.000E-02  1.378E+00
   1    6    6     2     3    2.2406E+01  2.4762E-01   2.2158E+01  0.000E+00  0.000E+00  0.000E+00  1.06292E+03  1.127E+00  1.200E+01  6.000E-02  1.376E+00
   1    7    6     2     4    2.2158E+01  2.4717E-01   2.1911E+01  0.000E+00  0.000E+00  0.000E+00  1.05819E+03  1.119E+00  1.200E+01  6.000E-02  1.373E+00
   1    8    6     2     5    2.1911E+01  2.4671E-01   2.1664E+01  0.000E+00  0.000E+00  0.000E+00  1.05347E+03  1.112E+00  1.200E+01  6.000E-02  1.371E+00
   1    3    5     3     1    2.0000E+00  2.8252E-01   1.7175E+00  0.000E+00  0.000E+00  0.000E+00  1.07555E+03  1.909E+00  9.636E+00  7.227E-02  1.955E+00
   1    3    6     3     2    1.7175E+00  2.4905E-01   1.4684E+00  0.000E+00  0.000E+00  0.000E+00  1.07264E+03  1.727E+00  8.909E+00  6.682E-02  1.864E+00
   1    3    7     3     3    1.4684E+00  1.9718E-01   1.2712E+00  0.000E+00  0.000E+00  0.000E+00  1.06987E+03  1.555E+00  8.218E+00  5.547E-02  1.777E+00
   1    4    8     3     4    1.2712E+00  2.2567E-01   1.0456E+00  0.000E+00  0.000E+00  0.000E+00  1.06682E+03  1.364E+00  7.455E+00  6.709E-02  1.682E+00
   1    5    8     3     5    1.0456E+00  1.5790E-01   8.8768E-01  0.000E+00  0.000E+00  0.000E+00  1.06362E+03  1.164E+00  6.655E+00  4.991E-02  1.582E+00
   1    6    8     3     6    8.8768E-01  5.5980E-02   8.3170E-01  0.000E+00  0.000E+00  0.000E+00  1.06158E+03  1.036E+00  6.145E+00  1.844E-02  1.518E+00
   1    5   10     4     1    1.0000E+01  9.0919E-02   9.9091E+00  0.000E+00  0.000E+00  0.000E+00  1.07836E+03  6.368E-01  1.000E+01  2.500E-02  1.212E+00
   1    5    9     4     2    9.9091E+00  1.8158E-01   9.7275E+00  0.000E+00  0.000E+00  0.000E+00  1.07154E+03  6.315E-01  1.000E+01  5.000E-02  1.211E+00
   1    6    8     4     3    9.7275E+00  1.2689E-01   9.6006E+00  0.000E+00  0.000E+00  0.000E+00  1.06381E+03  6.256E-01  1.000E+01  3.500E-02  1.209E+00
   1    6    8     5     1    1.0432E+01  2.2686E-01   1.0205E+01  0.000E+00  0.000E+00  0.000E+00  1.05868E+03  6.790E-01  1.542E+01  6.166E-02  1.226E+00
   1    7    7     5     2    1.0205E+01  2.7894E-01   9.9265E+00  0.000E+00  0.000E+00  0.000E+00  1.05417E+03  6.732E-01  1.519E+01  7.594E-02  1.224E+00
   1    8    7     5     3    9.9265E+00  1.9221E-01   9.7343E+00  0.000E+00  0.000E+00  0.000E+00  1.04992E+03  6.676E-01  1.497E+01  5.241E-02  1.223E+00
   1    8    6     5     4    9.7343E+00  1.3577E-01   9.5985E+00  0.000E+00  0.000E+00  0.000E+00  1.04691E+03  6.637E-01  1.482E+01  3.706E-02  1.221E+00
   1    9    6     6     1    3.1263E+01  2.6357E-01   3.0999E+01  0.000E+00  0.000E+00  0.000E+00  1.04412E+03  1.393E+00  1.200E+01  6.000E-02  1.464E+00
   1   10    7     6     2    3.0999E+01  2.6314E-01   3.0736E+01  0.000E+00  0.000E+00  0.000E+00  1.03957E+03  1.386E+00  1.200E+01  6.000E-02  1.462E+00
   1   11    7     6     3    3.0736E+01  2.6272E-01   3.0473E+01  0.000E+00  0.000E+00  0.000E+00  1.03502E+03  1.379E+00  1.200E+01  6.000E-02  1.460E+00
   1   12    7     6     4    3.0473E+01  2.6229E-01   3.0211E+01  0.000E+00  0.000E+00  0.000E+00  1.03046E+03  1.372E+00  1.200E+01  6.000E-02  1.457E+00
   1   13    7     6     5    3.0211E+01  3.6157E-03   3.0207E+01  0.000E+00  0.000E+00  0.000E+00  1.02728E+03  1.368E+00  1.200E+01  2.400E-02  5.022E-02
   1   14    9     7     1    1.5000E+02  1.3359E+00   1.4866E+02  0.000E+00  0.000E+00  0.000E+00  1.03987E+03  2.288E+00  5.529E+01  5.593E-01  7.962E-01
   1   13    8     7     2    1.4866E+02  1.8236E+00   1.4684E+02  0.000E+00  0.000E+00  0.000E+00  1.03478E+03  2.279E+00  5.526E+01  6.148E-01  9.888E-01
   1   13    7     7     3    1.4684E+02  1.4317E+00   1.4541E+02  0.000E+00  0.000E+00  0.000E+00  1.02969E+03  2.271E+00  5.522E+01  5.585E-01  8.545E-01
   1   13    6     8     1    1.7562E+02  9.0011E-01   1.7472E+02  0.000E+00  0.000E+00  0.000E+00  1.02486E+03  2.986E+00  4.329E+01  4.411E-01  6.801E-01
   1   13    5     8     2    1.7472E+02  1.4193E-01   1.7457E+02  0.000E+00  0.000E+00  0.000E+00  1.01861E+03  2.982E+00  4.324E+01  4.406E-01  1.074E-01
   1   13    4     8     3    1.7457E+02 -2.5779E+00   1.7715E+02  0.000E+00  0.000E+00  0.000E+00  1.01236E+03  2.990E+00  4.335E+01  4.418E+00 -1.945E-01
   1   13    3     8     4    1.7715E+02 -3.7084E+00   1.8086E+02  0.000E+00  0.000E+00  0.000E+00  1.00613E+03  3.010E+00  4.364E+01  4.447E+00 -2.779E-01
   1   13    2     8     5    1.8086E+02 -2.5717E+00   1.8343E+02  0.000E+00  0.000E+00  0.000E+00  9.99905E+02  3.030E+00  4.393E+01  4.477E+00 -1.915E-01
   1   13    1     8     6    1.8343E+02 -1.9605E+00   1.8539E+02  0.000E+00  0.000E+00  0.000E+00  9.94919E+02  3.044E+00  4.413E+01  2.698E+00 -2.422E-01
   1    8    6     9     1    0.0000E+00  0.0000E+00   0.0000E+00  0.000E+00  0.000E+00  0.000E+00  1.07875E+03  0.000E+00  4.000E+00  0.000E+00  1.000E+00
   1    8    5     9     2    0.0000E+00  0.0000E+00   0.0000E+00  0.000E+00  0.000E+00  0.000E+00  1.07825E+03  0.000E+00  4.000E+00  0.000E+00  1.000E+00





UNSATURATED ZONE PACKAGE VOLUMETRIC BUDGET FOR  TIME STEP    30 STRESS PERIOD   11
  ------------------------------------------------------------------------------



     CUMULATIVE VOLUMES      L**3       RATES FOR THIS TIME STEP      L**3/T
     ------------------                 ------------------------

           IN:                                      IN:
           ---                                      ---
        INFILTRATION =   466322767.1825          INFILTRATION =           0.8475

          OUT:                                     OUT:
          ----                                     ----
              UZF ET =   426092648.1274                UZF ET =           0.8475
        UZF RECHARGE =       73224.0000          UZF RECHARGE =       0.0000E+00

            IN - OUT =    40156895.0551              IN - OUT =       0.0000E+00

          STORAGE:                                 STORAGE:
          --------                                 --------
      STORAGE CHANGE =    40172495.1181        STORAGE CHANGE =       2.1382E-14

 PERCENT DISCREPANCY IS DIFFERENCE BETWEEN IN-OUT MINUS CHANGE IN STORAGE
 DIVIDED BY THE AVERAGE OF IN AND OUT TIMES 100

 PERCENT DISCREPANCY =          -0.00     PERCENT DISCREPANCY =           0.00






1
  VOLUMETRIC BUDGET FOR AGRICULTURAL FIELDS AT  END OF TIME STEP   30, STRESS PERIOD  11
  ------------------------------------------------------------------------------

     CUMULATIVE VOLUMES      L**3       RATES FOR THIS TIME STEP      L**3/T
     ------------------                 ------------------------

           IN:                                      IN:
           ---                                      ---
           AG WELLS      =    86996240.0000             AG WELLS      =           0.0000
      DIVERSION SEGMENTS =   356960448.0000        DIVERSION SEGMENTS =           0.0000
           GW IRRIGATION =           0.0000             GW IRRIGATION =           0.0000
           SW IRRIGATION =           0.0000             SW IRRIGATION =           0.0000
        SYSTEM LOSSES GW =           0.0000          SYSTEM LOSSES GW =           0.0000
        SYSTEM LOSSES SW =           0.0000          SYSTEM LOSSES SW =           0.0000

                TOTAL IN =   443956672.0000                  TOTAL IN =           0.0000

          OUT:                                     OUT:
          ----                                     ----
           AG WELLS      =           0.0000             AG WELLS      =           0.0000
      DIVERSION SEGMENTS =           0.0000        DIVERSION SEGMENTS =           0.0000
           GW IRRIGATION =    86996240.0000             GW IRRIGATION =           0.0000
           SW IRRIGATION =   356967584.0000             SW IRRIGATION =           0.0000
        SYSTEM LOSSES GW =           0.0000          SYSTEM LOSSES GW =           0.0000
        SYSTEM LOSSES SW =           0.0000          SYSTEM LOSSES SW =           0.0000

               TOTAL OUT =   443963840.0000                 TOTAL OUT =           0.0000

                IN - OUT =       -7168.0000                  IN - OUT =           0.0000

     PERCENT DISCREPANCY =          -0.00         PERCENT DISCREPANCY =           0.00



1
  VOLUMETRIC BUDGET FOR ENTIRE MODEL AT END OF TIME STEP   30, STRESS PERIOD  11
  ------------------------------------------------------------------------------

     CUMULATIVE VOLUMES      L**3       RATES FOR THIS TIME STEP      L**3/T
     ------------------                 ------------------------

           IN:                                      IN:
           ---                                      ---
             STORAGE     =   136413712.0000               STORAGE     =           1.8497
       CONSTANT HEAD     =           0.0000         CONSTANT HEAD     =           0.0000
     HEAD DEP BOUNDS     =     7539519.0000       HEAD DEP BOUNDS     =           0.2858
      STREAM LEAKAGE     =   319594528.0000        STREAM LEAKAGE     =          11.6756
        UZF RECHARGE     =       73223.9531          UZF RECHARGE     =           0.0000
               GW ET     =           0.0000                 GW ET     =           0.0000
     SURFACE LEAKAGE     =           0.0000       SURFACE LEAKAGE     =           0.0000
           AG WELLS      =           0.0000             AG WELLS      =           0.0000

                TOTAL IN =   463620992.0000                  TOTAL IN =          13.8111

          OUT:                                     OUT:
          ----                                     ----
             STORAGE     =    82812920.0000               STORAGE     =           2.7024
       CONSTANT HEAD     =           0.0000         CONSTANT HEAD     =           0.0000
     HEAD DEP BOUNDS     =     7677041.0000       HEAD DEP BOUNDS     =           0.2905
      STREAM LEAKAGE     =   284602144.0000        STREAM LEAKAGE     =          10.8184
        UZF RECHARGE     =           0.0000          UZF RECHARGE     =           0.0000
               GW ET     =     1534490.7500                 GW ET     =           0.0000
     SURFACE LEAKAGE     =           0.0000       SURFACE LEAKAGE     =           0.0000
           AG WELLS      =    86996240.0000             AG WELLS      =           0.0000

               TOTAL OUT =   463622848.0000                 TOTAL OUT =          13.8113

                IN - OUT =       -1856.0000                  IN - OUT =      -2.4128E-04

     PERCENT DISCREPANCY =          -0.00         PERCENT DISCREPANCY =          -0.00






         TIME SUMMARY AT END OF TIME STEP   30 IN STRESS PERIOD   11
                    SECONDS     MINUTES      HOURS       DAYS        YEARS
                    -----------------------------------------------------------
   TIME STEP LENGTH  87667.      1461.1      24.352      1.0147     2.77799E-03
 STRESS PERIOD TIME 2.63000E+06  43833.      730.56      30.440     8.33397E-02
         TOTAL TIME 2.63864E+07 4.39773E+05  7329.5      305.40     0.83613    
1
1
                            STRESS PERIOD NO.   12, LENGTH =   2630000.    
                            -----------------------------------------------

                              NUMBER OF TIME STEPS =    30

                               MULTIPLIER FOR DELT =     1.000

                            INITIAL TIME STEP SIZE =   87666.66    

 REUSING NON-PARAMETER GHB CELLS FROM LAST STRESS PERIOD

      2 GHB CELLS

 REUSING STREAM SEGMENT DATA FROM LAST STRESS PERIOD



            AREAL INFILTRATION RATE
 READING ON UNIT   19 WITH FORMAT: (FREE)              

            1           2           3           4           5           6           7           8           9          10
 ........................................................................................................................
   1   1.0000E-10  2.0000E-10   0.000       0.000       0.000       0.000       0.000       0.000       0.000       0.000    
   2   2.0000E-10  1.0000E-10  2.0000E-10   0.000       0.000      8.0000E-10  8.0000E-10  5.0000E-10   0.000       0.000    
   3    0.000      5.0000E-10  1.0000E-10  1.0000E-10  8.0000E-10  8.0000E-10  5.0000E-10  5.0000E-10   0.000       0.000    
   4   8.0000E-10  5.0000E-10  1.0000E-10  1.0000E-10  1.0000E-10  1.0000E-10  1.0000E-10  1.0000E-10  2.0000E-10   0.000    
   5   8.0000E-10  5.0000E-10  1.0000E-10  1.0000E-10  1.0000E-10  1.0000E-10  1.0000E-10  1.0000E-10  1.0000E-10  1.0000E-10
   6   8.0000E-10  5.0000E-10  5.0000E-10  2.0000E-10  2.0000E-10  1.0000E-10  1.0000E-10  1.0000E-10  1.0000E-10  5.0000E-10
   7   8.0000E-10  5.0000E-10  5.0000E-10  2.0000E-10  2.0000E-10  1.0000E-10  1.0000E-10  2.0000E-10  2.0000E-10   0.000    
   8    0.000      5.0000E-10  5.0000E-10  2.0000E-10  2.0000E-10  1.0000E-10  1.0000E-10  2.0000E-10  5.0000E-10   0.000    
   9    0.000      5.0000E-10  5.0000E-10  2.0000E-10  2.0000E-10  1.0000E-10  1.0000E-10  2.0000E-10  5.0000E-10   0.000    
  10    0.000      5.0000E-10  5.0000E-10  2.0000E-10  2.0000E-10  1.0000E-10  1.0000E-10  2.0000E-10  5.0000E-10  8.0000E-10
  11    0.000      1.0000E-10  1.0000E-10  1.0000E-10  1.0000E-10  1.0000E-10  1.0000E-10  2.0000E-10  5.0000E-10   0.000    
  12   1.0000E-10  1.0000E-10  1.0000E-10  1.0000E-10  1.0000E-10  1.0000E-10  1.0000E-10  1.0000E-10  2.0000E-10   0.000    
  13   1.0000E-10  1.0000E-10  2.0000E-10  2.0000E-10  2.0000E-10  2.0000E-10  2.0000E-10  1.0000E-10  1.0000E-10   0.000    
  14    0.000      2.0000E-10  5.0000E-10  5.0000E-10  5.0000E-10  5.0000E-10  5.0000E-10  2.0000E-10  1.0000E-10   0.000    
  15    0.000       0.000      8.0000E-10  8.0000E-10  8.0000E-10  8.0000E-10   0.000       0.000       0.000       0.000    

                  ET RATE =  5.000000E-10

 USING ET EXTINCTION DEPTH FROM PREVIOUS STRESS PERIOD. CURRENT PERIOD IS:      12

 USING EXTINCTION WATER CONTENT FROM PREVIOUS STRESS PERIOD. CURRENT PERIOD IS:      12

 USING AIR ENTRY PRESSURE FROM PREVIOUS STRESS PERIOD. CURRENT PERIOD IS:      12

 USING ROOT PRESSURE HEAD FROM PREVIOUS STRESS PERIOD. CURRENT PERIOD IS:      12

 USING ROOT ACTIVITY FROM PREVIOUS STRESS PERIOD. CURRENT PERIOD IS:      12

 PROCESSING AG STRESS PERIOD DATA

 READING AG STRESS PERIOD DATA

 READING IRRIGATION SEGMENT

 READING IRRIGATION WELL

 READING SUPPLEMENTAL WELL

 END PROCESSING AG STRESS PERIOD DATA OPTIONS
 
 SOLVING FOR HEAD 
                                                   Max.-Head-Change                         Max.-Flux-Residual
  Residual-Control   Outer-Iter.   Inner-Iter.     Column Row Layer    Maximum-Head-Change  Column Row Layer    Maximum-Flux-Residual          L2-NORM 
          0                 1           2             4    7     1       0.7284475358E-02       4    7    1         0.3837504222E+00      0.8344784789E+00
          0                 2           2             4    7     1      -0.7085819555E-03       4    7    1        -0.3837511935E-01      0.8334686673E-01
          0                 3           1             4    7     1       0.4825179357E-04       4    7    1         0.2686258782E-02      0.5821571986E-02

    ------------------------------------------------
       NWT REQUIRED            3 OUTER ITERATIONS 
       AND A TOTAL OF          5 INNER ITERATIONS.
    ------------------------------------------------

 NO OUTPUT CONTROL FOR STRESS PERIOD   12   TIME STEP    1
 
 SOLVING FOR HEAD 
                                                   Max.-Head-Change                         Max.-Flux-Residual
  Residual-Control   Outer-Iter.   Inner-Iter.     Column Row Layer    Maximum-Head-Change  Column Row Layer    Maximum-Flux-Residual          L2-NORM 
          0                 1           2             4    7     1       0.7184878611E-02       4    7    1         0.3784920909E+00      0.8318947599E+00
          0                 2           2             4    7     1      -0.6988938799E-03       4    7    1        -0.3784928434E-01      0.8303963625E-01
          0                 3           1             4    7     1       0.4759207156E-04       4    7    1         0.2649450334E-02      0.5799348091E-02

    ------------------------------------------------
       NWT REQUIRED            3 OUTER ITERATIONS 
       AND A TOTAL OF          5 INNER ITERATIONS.
    ------------------------------------------------

 NO OUTPUT CONTROL FOR STRESS PERIOD   12   TIME STEP    2
 
 SOLVING FOR HEAD 
                                                   Max.-Head-Change                         Max.-Flux-Residual
  Residual-Control   Outer-Iter.   Inner-Iter.     Column Row Layer    Maximum-Head-Change  Column Row Layer    Maximum-Flux-Residual          L2-NORM 
          0                 1           2             4    7     1       0.7086807294E-02       4    7    1         0.3733133147E+00      0.8182825244E+00
          0                 2           2             4    7     1      -0.6893541875E-03       4    7    1        -0.3733140487E-01      0.8169810871E-01
          0                 3           1             4    7     1       0.4694245407E-04       4    7    1         0.2613198767E-02      0.5706826010E-02

    ------------------------------------------------
       NWT REQUIRED            3 OUTER ITERATIONS 
       AND A TOTAL OF          5 INNER ITERATIONS.
    ------------------------------------------------

 NO OUTPUT CONTROL FOR STRESS PERIOD   12   TIME STEP    3
 
 SOLVING FOR HEAD 
                                                   Max.-Head-Change                         Max.-Flux-Residual
  Residual-Control   Outer-Iter.   Inner-Iter.     Column Row Layer    Maximum-Head-Change  Column Row Layer    Maximum-Flux-Residual          L2-NORM 
          0                 1           2             4    7     1       0.6990512115E-02       4    7    1         0.3682284259E+00      0.8054355198E+00
          0                 2           2             4    7     1      -0.6799872657E-03       4    7    1        -0.3682291419E-01      0.8043072746E-01
          0                 3           1             4    7     1       0.4630460233E-04       4    7    1         0.2577604452E-02      0.5619846293E-02

    ------------------------------------------------
       NWT REQUIRED            3 OUTER ITERATIONS 
       AND A TOTAL OF          5 INNER ITERATIONS.
    ------------------------------------------------

 NO OUTPUT CONTROL FOR STRESS PERIOD   12   TIME STEP    4
 
 SOLVING FOR HEAD 
                                                   Max.-Head-Change                         Max.-Flux-Residual
  Residual-Control   Outer-Iter.   Inner-Iter.     Column Row Layer    Maximum-Head-Change  Column Row Layer    Maximum-Flux-Residual          L2-NORM 
          0                 1           2             4    7     1       0.6895704364E-02       4    7    1         0.3632208319E+00      0.7932838258E+00
          0                 2           2             4    7     1      -0.6707650306E-03       4    7    1        -0.3632215303E-01      0.7922987967E-01
          0                 3           1             4    7     1       0.4567660211E-04       4    7    1         0.2542551148E-02      0.5536967830E-02

    ------------------------------------------------
       NWT REQUIRED            3 OUTER ITERATIONS 
       AND A TOTAL OF          5 INNER ITERATIONS.
    ------------------------------------------------

 NO OUTPUT CONTROL FOR STRESS PERIOD   12   TIME STEP    5
 
 SOLVING FOR HEAD 
                                                   Max.-Head-Change                         Max.-Flux-Residual
  Residual-Control   Outer-Iter.   Inner-Iter.     Column Row Layer    Maximum-Head-Change  Column Row Layer    Maximum-Flux-Residual          L2-NORM 
          0                 1           2             4    7     1       0.6802637244E-02       4    7    1         0.3583051557E+00      0.7817323017E+00
          0                 2           2             4    7     1      -0.6617121115E-03       4    7    1        -0.3583058367E-01      0.7808781016E-01
          0                 3           1             4    7     1       0.4506013190E-04       4    7    1         0.2508141284E-02      0.5458247512E-02

    ------------------------------------------------
       NWT REQUIRED            3 OUTER ITERATIONS 
       AND A TOTAL OF          5 INNER ITERATIONS.
    ------------------------------------------------

 NO OUTPUT CONTROL FOR STRESS PERIOD   12   TIME STEP    6
 
 SOLVING FOR HEAD 
                                                   Max.-Head-Change                         Max.-Flux-Residual
  Residual-Control   Outer-Iter.   Inner-Iter.     Column Row Layer    Maximum-Head-Change  Column Row Layer    Maximum-Flux-Residual          L2-NORM 
          0                 1           2             4    7     1       0.6710739120E-02       4    7    1         0.3534501362E+00      0.7707132163E+00
          0                 2           2             4    7     1      -0.6527729046E-03       4    7    1        -0.3534508002E-01      0.7699709956E-01
          0                 3           1             4    7     1       0.4445140517E-04       4    7    1         0.2474156028E-02      0.5382875324E-02

    ------------------------------------------------
       NWT REQUIRED            3 OUTER ITERATIONS 
       AND A TOTAL OF          5 INNER ITERATIONS.
    ------------------------------------------------

 NO OUTPUT CONTROL FOR STRESS PERIOD   12   TIME STEP    7
 
 SOLVING FOR HEAD 
                                                   Max.-Head-Change                         Max.-Flux-Residual
  Residual-Control   Outer-Iter.   Inner-Iter.     Column Row Layer    Maximum-Head-Change  Column Row Layer    Maximum-Flux-Residual          L2-NORM 
          0                 1           2             4    7     1       0.6620553987E-02       4    7    1         0.3486853208E+00      0.7601778903E+00
          0                 2           2             4    7     1      -0.6440003258E-03       4    7    1        -0.3486859680E-01      0.7595318778E-01
          0                 3           1             4    7     1       0.4385402598E-04       4    7    1         0.2440802227E-02      0.5310843409E-02

    ------------------------------------------------
       NWT REQUIRED            3 OUTER ITERATIONS 
       AND A TOTAL OF          5 INNER ITERATIONS.
    ------------------------------------------------

 NO OUTPUT CONTROL FOR STRESS PERIOD   12   TIME STEP    8
 
 SOLVING FOR HEAD 
                                                   Max.-Head-Change                         Max.-Flux-Residual
  Residual-Control   Outer-Iter.   Inner-Iter.     Column Row Layer    Maximum-Head-Change  Column Row Layer    Maximum-Flux-Residual          L2-NORM 
          0                 1           2             4    7     1       0.6532050233E-02       4    7    1         0.3440093222E+00      0.7500779895E+00
          0                 2           2             4    7     1      -0.6353913000E-03       4    7    1        -0.3440099534E-01      0.7495142570E-01
          0                 3           1             4    7     1       0.4326778320E-04       4    7    1         0.2408070108E-02      0.5241448622E-02

    ------------------------------------------------
       NWT REQUIRED            3 OUTER ITERATIONS 
       AND A TOTAL OF          5 INNER ITERATIONS.
    ------------------------------------------------

 NO OUTPUT CONTROL FOR STRESS PERIOD   12   TIME STEP    9
 
 SOLVING FOR HEAD 
                                                   Max.-Head-Change                         Max.-Flux-Residual
  Residual-Control   Outer-Iter.   Inner-Iter.     Column Row Layer    Maximum-Head-Change  Column Row Layer    Maximum-Flux-Residual          L2-NORM 
          0                 1           2             4    7     1       0.6444654424E-02       4    7    1         0.3393909070E+00      0.7403574759E+00
          0                 2           2             4    7     1      -0.6268900467E-03       4    7    1        -0.3393915221E-01      0.7398677314E-01
          0                 3           1             4    7     1       0.4268887943E-04       4    7    1         0.2375741081E-02      0.5174701938E-02

    ------------------------------------------------
       NWT REQUIRED            3 OUTER ITERATIONS 
       AND A TOTAL OF          5 INNER ITERATIONS.
    ------------------------------------------------

 NO OUTPUT CONTROL FOR STRESS PERIOD   12   TIME STEP   10
 
 SOLVING FOR HEAD 
                                                   Max.-Head-Change                         Max.-Flux-Residual
  Residual-Control   Outer-Iter.   Inner-Iter.     Column Row Layer    Maximum-Head-Change  Column Row Layer    Maximum-Flux-Residual          L2-NORM 
          0                 1           2             4    7     1       0.6358912022E-02       4    7    1         0.3348595316E+00      0.7309934179E+00
          0                 2           2             4    7     1      -0.6185496265E-03       4    7    1        -0.3348601313E-01      0.7305655825E-01
          0                 3           1             4    7     1       0.4212092819E-04       4    7    1         0.2344021365E-02      0.5110033884E-02

    ------------------------------------------------
       NWT REQUIRED            3 OUTER ITERATIONS 
       AND A TOTAL OF          5 INNER ITERATIONS.
    ------------------------------------------------

 NO OUTPUT CONTROL FOR STRESS PERIOD   12   TIME STEP   11
 
 SOLVING FOR HEAD 
                                                   Max.-Head-Change                         Max.-Flux-Residual
  Residual-Control   Outer-Iter.   Inner-Iter.     Column Row Layer    Maximum-Head-Change  Column Row Layer    Maximum-Flux-Residual          L2-NORM 
          0                 1           2             4    7     1       0.6274782471E-02       4    7    1         0.3304138837E+00      0.7219407150E+00
          0                 2           2             4    7     1      -0.6103660928E-03       4    7    1        -0.3304144683E-01      0.7215658987E-01
          0                 3           1             4    7     1       0.4156366015E-04       4    7    1         0.2312901717E-02      0.5047573152E-02

    ------------------------------------------------
       NWT REQUIRED            3 OUTER ITERATIONS 
       AND A TOTAL OF          5 INNER ITERATIONS.
    ------------------------------------------------

 NO OUTPUT CONTROL FOR STRESS PERIOD   12   TIME STEP   12
 
 SOLVING FOR HEAD 
                                                   Max.-Head-Change                         Max.-Flux-Residual
  Residual-Control   Outer-Iter.   Inner-Iter.     Column Row Layer    Maximum-Head-Change  Column Row Layer    Maximum-Flux-Residual          L2-NORM 
          0                 1           2             4    7     1       0.6191970975E-02       4    7    1         0.3260370624E+00      0.7131912780E+00
          0                 2           2             4    7     1      -0.6023107706E-03       4    7    1        -0.3260376323E-01      0.7128647745E-01
          0                 3           1             4    7     1       0.4101512274E-04       4    7    1         0.2282263871E-02      0.4987158109E-02

    ------------------------------------------------
       NWT REQUIRED            3 OUTER ITERATIONS 
       AND A TOTAL OF          5 INNER ITERATIONS.
    ------------------------------------------------

 NO OUTPUT CONTROL FOR STRESS PERIOD   12   TIME STEP   13
 
 SOLVING FOR HEAD 
                                                   Max.-Head-Change                         Max.-Flux-Residual
  Residual-Control   Outer-Iter.   Inner-Iter.     Column Row Layer    Maximum-Head-Change  Column Row Layer    Maximum-Flux-Residual          L2-NORM 
          0                 1           2             4    7     1       0.6110453509E-02       4    7    1         0.3217285807E+00      0.7046915736E+00
          0                 2           2             4    7     1      -0.5943813226E-03       4    7    1        -0.3217291362E-01      0.7044035079E-01
          0                 3           1             4    7     1       0.4047515693E-04       4    7    1         0.2252104395E-02      0.4928183809E-02

    ------------------------------------------------
       NWT REQUIRED            3 OUTER ITERATIONS 
       AND A TOTAL OF          5 INNER ITERATIONS.
    ------------------------------------------------

 NO OUTPUT CONTROL FOR STRESS PERIOD   12   TIME STEP   14
 
 SOLVING FOR HEAD 
                                                   Max.-Head-Change                         Max.-Flux-Residual
  Residual-Control   Outer-Iter.   Inner-Iter.     Column Row Layer    Maximum-Head-Change  Column Row Layer    Maximum-Flux-Residual          L2-NORM 
          0                 1           2             4    7     1       0.6030221035E-02       4    7    1         0.3174871927E+00      0.6964521742E+00
          0                 2           2             4    7     1      -0.5865768697E-03       4    7    1        -0.3174877340E-01      0.6962006428E-01
          0                 3           1             4    7     1       0.3994370284E-04       4    7    1         0.2222414581E-02      0.4871044995E-02

    ------------------------------------------------
       NWT REQUIRED            3 OUTER ITERATIONS 
       AND A TOTAL OF          5 INNER ITERATIONS.
    ------------------------------------------------

 NO OUTPUT CONTROL FOR STRESS PERIOD   12   TIME STEP   15
 
 SOLVING FOR HEAD 
                                                   Max.-Head-Change                         Max.-Flux-Residual
  Residual-Control   Outer-Iter.   Inner-Iter.     Column Row Layer    Maximum-Head-Change  Column Row Layer    Maximum-Flux-Residual          L2-NORM 
          0                 1           2             4    7     1       0.5951519155E-02       4    7    1         0.3133272283E+00      0.6884372443E+00
          0                 2           2             4    7     1      -0.5789213024E-03       4    7    1        -0.3133277556E-01      0.6882156901E-01
          0                 3           1             4    7     1       0.3942238736E-04       4    7    1         0.2193294744E-02      0.4815450406E-02

    ------------------------------------------------
       NWT REQUIRED            3 OUTER ITERATIONS 
       AND A TOTAL OF          5 INNER ITERATIONS.
    ------------------------------------------------

 NO OUTPUT CONTROL FOR STRESS PERIOD   12   TIME STEP   16
 
 SOLVING FOR HEAD 
                                                   Max.-Head-Change                         Max.-Flux-Residual
  Residual-Control   Outer-Iter.   Inner-Iter.     Column Row Layer    Maximum-Head-Change  Column Row Layer    Maximum-Flux-Residual          L2-NORM 
          0                 1           2             4    7     1       0.5874046479E-02       4    7    1         0.3092318248E+00      0.6806266812E+00
          0                 2           2             4    7     1      -0.5713853040E-03       4    7    1        -0.3092323390E-01      0.6804336651E-01
          0                 3           1             4    7     1       0.3890921415E-04       4    7    1         0.2164626831E-02      0.4761398334E-02

    ------------------------------------------------
       NWT REQUIRED            3 OUTER ITERATIONS 
       AND A TOTAL OF          5 INNER ITERATIONS.
    ------------------------------------------------

 NO OUTPUT CONTROL FOR STRESS PERIOD   12   TIME STEP   17
 
 SOLVING FOR HEAD 
                                                   Max.-Head-Change                         Max.-Flux-Residual
  Residual-Control   Outer-Iter.   Inner-Iter.     Column Row Layer    Maximum-Head-Change  Column Row Layer    Maximum-Flux-Residual          L2-NORM 
          0                 1           2             4    7     1       0.5798054564E-02       4    7    1         0.3052149527E+00      0.6730215911E+00
          0                 2           2             4    7     1      -0.5639933436E-03       4    7    1        -0.3052154539E-01      0.6728492814E-01
          0                 3           1             4    7     1       0.3840584915E-04       4    7    1         0.2136508628E-02      0.4707956644E-02

    ------------------------------------------------
       NWT REQUIRED            3 OUTER ITERATIONS 
       AND A TOTAL OF          5 INNER ITERATIONS.
    ------------------------------------------------

 NO OUTPUT CONTROL FOR STRESS PERIOD   12   TIME STEP   18
 
 SOLVING FOR HEAD 
                                                   Max.-Head-Change                         Max.-Flux-Residual
  Residual-Control   Outer-Iter.   Inner-Iter.     Column Row Layer    Maximum-Head-Change  Column Row Layer    Maximum-Flux-Residual          L2-NORM 
          0                 1           2             4    7     1       0.5723242193E-02       4    7    1         0.3012600574E+00      0.6655994306E+00
          0                 2           2             4    7     1      -0.5567161207E-03       4    7    1        -0.3012605458E-01      0.6654497596E-01
          0                 3           1             4    7     1       0.3791029721E-04       4    7    1         0.2108824257E-02      0.4656769103E-02

    ------------------------------------------------
       NWT REQUIRED            3 OUTER ITERATIONS 
       AND A TOTAL OF          5 INNER ITERATIONS.
    ------------------------------------------------

 NO OUTPUT CONTROL FOR STRESS PERIOD   12   TIME STEP   19
 
 SOLVING FOR HEAD 
                                                   Max.-Head-Change                         Max.-Flux-Residual
  Residual-Control   Outer-Iter.   Inner-Iter.     Column Row Layer    Maximum-Head-Change  Column Row Layer    Maximum-Flux-Residual          L2-NORM 
          0                 1           2             4    7     1       0.5649867621E-02       4    7    1         0.2973811190E+00      0.6583594490E+00
          0                 2           2             4    7     1      -0.5495787574E-03       4    7    1        -0.2973815950E-01      0.6582259518E-01
          0                 3           1             4    7     1       0.3742426924E-04       4    7    1         0.2081671600E-02      0.4606350358E-02

    ------------------------------------------------
       NWT REQUIRED            3 OUTER ITERATIONS 
       AND A TOTAL OF          5 INNER ITERATIONS.
    ------------------------------------------------

 NO OUTPUT CONTROL FOR STRESS PERIOD   12   TIME STEP   20
 
 SOLVING FOR HEAD 
                                                   Max.-Head-Change                         Max.-Flux-Residual
  Residual-Control   Outer-Iter.   Inner-Iter.     Column Row Layer    Maximum-Head-Change  Column Row Layer    Maximum-Flux-Residual          L2-NORM 
          0                 1           2             4    7     1       0.5577624047E-02       4    7    1         0.2935619297E+00      0.6512839583E+00
          0                 2           2             4    7     1      -0.5425514099E-03       4    7    1        -0.2935623936E-01      0.6511657168E-01
          0                 3           1             4    7     1       0.3694573340E-04       4    7    1         0.2054937201E-02      0.4557059772E-02

    ------------------------------------------------
       NWT REQUIRED            3 OUTER ITERATIONS 
       AND A TOTAL OF          5 INNER ITERATIONS.
    ------------------------------------------------

 NO OUTPUT CONTROL FOR STRESS PERIOD   12   TIME STEP   21
 
 SOLVING FOR HEAD 
                                                   Max.-Head-Change                         Max.-Flux-Residual
  Residual-Control   Outer-Iter.   Inner-Iter.     Column Row Layer    Maximum-Head-Change  Column Row Layer    Maximum-Flux-Residual          L2-NORM 
          0                 1           2             4    7     1       0.5506763950E-02       4    7    1         0.2898161806E+00      0.6443571458E+00
          0                 2           2             4    7     1      -0.5356586375E-03       4    7    1        -0.2898166329E-01      0.6442523495E-01
          0                 3           1             4    7     1       0.3647636131E-04       4    7    1         0.2028716884E-02      0.4508805229E-02

    ------------------------------------------------
       NWT REQUIRED            3 OUTER ITERATIONS 
       AND A TOTAL OF          5 INNER ITERATIONS.
    ------------------------------------------------

 NO OUTPUT CONTROL FOR STRESS PERIOD   12   TIME STEP   22
 
 SOLVING FOR HEAD 
                                                   Max.-Head-Change                         Max.-Flux-Residual
  Residual-Control   Outer-Iter.   Inner-Iter.     Column Row Layer    Maximum-Head-Change  Column Row Layer    Maximum-Flux-Residual          L2-NORM 
          0                 1           2             4    7     1       0.5436988999E-02       4    7    1         0.2861273634E+00      0.6375899471E+00
          0                 2           2             4    7     1      -0.5288714205E-03       4    7    1        -0.2861278043E-01      0.6374957736E-01
          0                 3           1             4    7     1       0.3601417722E-04       4    7    1         0.2002895082E-02      0.4461660856E-02

    ------------------------------------------------
       NWT REQUIRED            3 OUTER ITERATIONS 
       AND A TOTAL OF          5 INNER ITERATIONS.
    ------------------------------------------------

 NO OUTPUT CONTROL FOR STRESS PERIOD   12   TIME STEP   23
 
 SOLVING FOR HEAD 
                                                   Max.-Head-Change                         Max.-Flux-Residual
  Residual-Control   Outer-Iter.   Inner-Iter.     Column Row Layer    Maximum-Head-Change  Column Row Layer    Maximum-Flux-Residual          L2-NORM 
          0                 1           2             4    7     1       0.5368283929E-02       4    7    1         0.2824948097E+00      0.6309601426E+00
          0                 2           2             4    7     1      -0.5221882739E-03       4    7    1        -0.2824952394E-01      0.6308774000E-01
          0                 3           1             4    7     1       0.3555907961E-04       4    7    1         0.1977467113E-02      0.4415406236E-02

    ------------------------------------------------
       NWT REQUIRED            3 OUTER ITERATIONS 
       AND A TOTAL OF          5 INNER ITERATIONS.
    ------------------------------------------------

 NO OUTPUT CONTROL FOR STRESS PERIOD   12   TIME STEP   24
 
 SOLVING FOR HEAD 
                                                   Max.-Head-Change                         Max.-Flux-Residual
  Residual-Control   Outer-Iter.   Inner-Iter.     Column Row Layer    Maximum-Head-Change  Column Row Layer    Maximum-Flux-Residual          L2-NORM 
          0                 1           2             4    7     1       0.5300898949E-02       4    7    1         0.2789325279E+00      0.6244603531E+00
          0                 2           2             4    7     1      -0.5156335369E-03       4    7    1        -0.2789329467E-01      0.6243859246E-01
          0                 3           1             4    7     1       0.3511272684E-04       4    7    1         0.1952531081E-02      0.4369997061E-02

    ------------------------------------------------
       NWT REQUIRED            3 OUTER ITERATIONS 
       AND A TOTAL OF          5 INNER ITERATIONS.
    ------------------------------------------------

 NO OUTPUT CONTROL FOR STRESS PERIOD   12   TIME STEP   25
 
 SOLVING FOR HEAD 
                                                   Max.-Head-Change                         Max.-Flux-Residual
  Residual-Control   Outer-Iter.   Inner-Iter.     Column Row Layer    Maximum-Head-Change  Column Row Layer    Maximum-Flux-Residual          L2-NORM 
          0                 1           2             4    7     1       0.5234804451E-02       4    7    1         0.2754386912E+00      0.6181026596E+00
          0                 2           2             4    7     1      -0.5092043292E-03       4    7    1        -0.2754390994E-01      0.6180369587E-01
          0                 3           1             4    7     1       0.3467492199E-04       4    7    1         0.1928074170E-02      0.4325713394E-02

    ------------------------------------------------
       NWT REQUIRED            3 OUTER ITERATIONS 
       AND A TOTAL OF          5 INNER ITERATIONS.
    ------------------------------------------------

 NO OUTPUT CONTROL FOR STRESS PERIOD   12   TIME STEP   26
 
 SOLVING FOR HEAD 
                                                   Max.-Head-Change                         Max.-Flux-Residual
  Residual-Control   Outer-Iter.   Inner-Iter.     Column Row Layer    Maximum-Head-Change  Column Row Layer    Maximum-Flux-Residual          L2-NORM 
          0                 1           2             4    7     1       0.5169700440E-02       4    7    1         0.2719969642E+00      0.6118601918E+00
          0                 2           2             4    7     1      -0.5028714691E-03       4    7    1        -0.2719973622E-01      0.6118018027E-01
          0                 3           1             4    7     1       0.3424367773E-04       4    7    1         0.1903981993E-02      0.4282084310E-02

    ------------------------------------------------
       NWT REQUIRED            3 OUTER ITERATIONS 
       AND A TOTAL OF          5 INNER ITERATIONS.
    ------------------------------------------------

 NO OUTPUT CONTROL FOR STRESS PERIOD   12   TIME STEP   27
 
 SOLVING FOR HEAD 
                                                   Max.-Head-Change                         Max.-Flux-Residual
  Residual-Control   Outer-Iter.   Inner-Iter.     Column Row Layer    Maximum-Head-Change  Column Row Layer    Maximum-Flux-Residual          L2-NORM 
          0                 1           2             4    7     1       0.5105566955E-02       4    7    1         0.2686065926E+00      0.6057328988E+00
          0                 2           2             4    7     1      -0.4966330148E-03       4    7    1        -0.2686069807E-01      0.6056802389E-01
          0                 3           1             4    7     1       0.3381886222E-04       4    7    1         0.1880249310E-02      0.4239320061E-02

    ------------------------------------------------
       NWT REQUIRED            3 OUTER ITERATIONS 
       AND A TOTAL OF          5 INNER ITERATIONS.
    ------------------------------------------------

 NO OUTPUT CONTROL FOR STRESS PERIOD   12   TIME STEP   28
 
 SOLVING FOR HEAD 
                                                   Max.-Head-Change                         Max.-Flux-Residual
  Residual-Control   Outer-Iter.   Inner-Iter.     Column Row Layer    Maximum-Head-Change  Column Row Layer    Maximum-Flux-Residual          L2-NORM 
          0                 1           2             4    7     1       0.5042668033E-02       4    7    1         0.2652813420E+00      0.5997351704E+00
          0                 2           2             4    7     1      -0.4905146507E-03       4    7    1        -0.2652817205E-01      0.5996864544E-01
          0                 3           1             4    7     1       0.3340222425E-04       4    7    1         0.1856972488E-02      0.4197274952E-02

    ------------------------------------------------
       NWT REQUIRED            3 OUTER ITERATIONS 
       AND A TOTAL OF          5 INNER ITERATIONS.
    ------------------------------------------------

 NO OUTPUT CONTROL FOR STRESS PERIOD   12   TIME STEP   29
 
 SOLVING FOR HEAD 
                                                   Max.-Head-Change                         Max.-Flux-Residual
  Residual-Control   Outer-Iter.   Inner-Iter.     Column Row Layer    Maximum-Head-Change  Column Row Layer    Maximum-Flux-Residual          L2-NORM 
          0                 1           2             4    7     1       0.4980965481E-02       4    7    1         0.2620201022E+00      0.5951533042E+00
          0                 2           2             4    7     1      -0.4851799210E-03       4    7    1        -0.2625023581E-01      0.5952361815E-01
          0                 3           1             4    7     1       0.3303894806E-04       4    7    1         0.1837516897E-02      0.4165724855E-02

    ------------------------------------------------
       NWT REQUIRED            3 OUTER ITERATIONS 
       AND A TOTAL OF          5 INNER ITERATIONS.
    ------------------------------------------------

 NO OUTPUT CONTROL FOR STRESS PERIOD   12   TIME STEP   30



 STREAM LISTING     PERIOD     12   STEP       30

 LAYER ROW COL. STREAM  RCH.  FLOW INTO     FLOW TO   FLOW OUT OF   OVRLND.     DIRECT     STREAM       STREAM     STREAM     STREAM   STREAMBED  STREAMBED
                SEG.NO.  NO.  STRM. RCH.    AQUIFER    STRM. RCH.    RUNOFF     PRECIP       ET          HEAD       DEPTH      WIDTH   CONDCTNC.   GRADIENT

   1    1    1     1     1    1.9081E+01  2.1479E-01   1.8866E+01  0.000E+00  0.000E+00  0.000E+00  1.09413E+03  1.083E+00  1.169E+01  5.260E-02  1.361E+00
   1    2    2     1     2    1.8866E+01  3.3136E-01   1.8535E+01  0.000E+00  0.000E+00  0.000E+00  1.08914E+03  1.079E+00  1.161E+01  8.124E-02  1.360E+00
   1    3    3     1     3    1.8535E+01  2.8134E-01   1.8253E+01  0.000E+00  0.000E+00  0.000E+00  1.08349E+03  1.074E+00  1.151E+01  6.906E-02  1.358E+00
   1    3    4     1     4    1.8253E+01  2.5804E-01   1.7995E+01  0.000E+00  0.000E+00  0.000E+00  1.07848E+03  1.069E+00  1.143E+01  6.342E-02  1.356E+00
   1    4    5     2     1    1.5995E+01  3.0564E-01   1.5690E+01  0.000E+00  0.000E+00  0.000E+00  1.07285E+03  9.184E-01  1.200E+01  7.800E-02  1.306E+00
   1    5    6     2     2    1.5690E+01  2.3454E-01   1.5455E+01  0.000E+00  0.000E+00  0.000E+00  1.06742E+03  9.090E-01  1.200E+01  6.000E-02  1.303E+00
   1    6    6     2     3    1.5455E+01  2.3405E-01   1.5221E+01  0.000E+00  0.000E+00  0.000E+00  1.06269E+03  9.008E-01  1.200E+01  6.000E-02  1.300E+00
   1    7    6     2     4    1.5221E+01  2.3355E-01   1.4987E+01  0.000E+00  0.000E+00  0.000E+00  1.05797E+03  8.925E-01  1.200E+01  6.000E-02  1.297E+00
   1    8    6     2     5    1.4987E+01  2.3305E-01   1.4754E+01  0.000E+00  0.000E+00  0.000E+00  1.05324E+03  8.842E-01  1.200E+01  6.000E-02  1.295E+00
   1    3    5     3     1    2.0000E+00  2.8252E-01   1.7175E+00  0.000E+00  0.000E+00  0.000E+00  1.07555E+03  1.909E+00  9.636E+00  7.227E-02  1.955E+00
   1    3    6     3     2    1.7175E+00  2.4905E-01   1.4684E+00  0.000E+00  0.000E+00  0.000E+00  1.07264E+03  1.727E+00  8.909E+00  6.682E-02  1.864E+00
   1    3    7     3     3    1.4684E+00  1.9718E-01   1.2712E+00  0.000E+00  0.000E+00  0.000E+00  1.06987E+03  1.555E+00  8.218E+00  5.547E-02  1.777E+00
   1    4    8     3     4    1.2712E+00  2.2567E-01   1.0456E+00  0.000E+00  0.000E+00  0.000E+00  1.06682E+03  1.364E+00  7.455E+00  6.709E-02  1.682E+00
   1    5    8     3     5    1.0456E+00  1.5790E-01   8.8768E-01  0.000E+00  0.000E+00  0.000E+00  1.06362E+03  1.164E+00  6.655E+00  4.991E-02  1.582E+00
   1    6    8     3     6    8.8768E-01  5.5980E-02   8.3170E-01  0.000E+00  0.000E+00  0.000E+00  1.06158E+03  1.036E+00  6.145E+00  1.844E-02  1.518E+00
   1    5   10     4     1    1.0000E+01  9.0919E-02   9.9091E+00  0.000E+00  0.000E+00  0.000E+00  1.07836E+03  6.368E-01  1.000E+01  2.500E-02  1.212E+00
   1    5    9     4     2    9.9091E+00  1.8158E-01   9.7275E+00  0.000E+00  0.000E+00  0.000E+00  1.07154E+03  6.315E-01  1.000E+01  5.000E-02  1.211E+00
   1    6    8     4     3    9.7275E+00  1.2689E-01   9.6006E+00  0.000E+00  0.000E+00  0.000E+00  1.06381E+03  6.256E-01  1.000E+01  3.500E-02  1.209E+00
   1    6    8     5     1    1.0432E+01  2.2686E-01   1.0205E+01  0.000E+00  0.000E+00  0.000E+00  1.05868E+03  6.790E-01  1.542E+01  6.166E-02  1.226E+00
   1    7    7     5     2    1.0205E+01  2.7894E-01   9.9265E+00  0.000E+00  0.000E+00  0.000E+00  1.05417E+03  6.732E-01  1.519E+01  7.594E-02  1.224E+00
   1    8    7     5     3    9.9265E+00  1.9221E-01   9.7343E+00  0.000E+00  0.000E+00  0.000E+00  1.04992E+03  6.676E-01  1.497E+01  5.241E-02  1.223E+00
   1    8    6     5     4    9.7343E+00  1.3577E-01   9.5985E+00  0.000E+00  0.000E+00  0.000E+00  1.04691E+03  6.637E-01  1.482E+01  3.706E-02  1.221E+00
   1    9    6     6     1    2.4353E+01  2.5190E-01   2.4101E+01  0.000E+00  0.000E+00  0.000E+00  1.04393E+03  1.198E+00  1.200E+01  6.000E-02  1.399E+00
   1   10    7     6     2    2.4101E+01  2.5145E-01   2.3850E+01  0.000E+00  0.000E+00  0.000E+00  1.03937E+03  1.191E+00  1.200E+01  6.000E-02  1.397E+00
   1   11    7     6     3    2.3850E+01  2.5100E-01   2.3599E+01  0.000E+00  0.000E+00  0.000E+00  1.03482E+03  1.183E+00  1.200E+01  6.000E-02  1.394E+00
   1   12    7     6     4    2.3599E+01  2.5054E-01   2.3348E+01  0.000E+00  0.000E+00  0.000E+00  1.03027E+03  1.176E+00  1.200E+01  6.000E-02  1.392E+00
   1   13    7     6     5    2.3348E+01 -1.0472E-02   2.3358E+01  0.000E+00  0.000E+00  0.000E+00  1.02708E+03  1.172E+00  1.200E+01  2.400E-01 -1.454E-02
   1   14    9     7     1    1.5000E+02  1.3360E+00   1.4866E+02  0.000E+00  0.000E+00  0.000E+00  1.03987E+03  2.288E+00  5.529E+01  5.593E-01  7.962E-01
   1   13    8     7     2    1.4866E+02  1.8229E+00   1.4684E+02  0.000E+00  0.000E+00  0.000E+00  1.03478E+03  2.279E+00  5.526E+01  6.148E-01  9.884E-01
   1   13    7     7     3    1.4684E+02  1.4325E+00   1.4541E+02  0.000E+00  0.000E+00  0.000E+00  1.02969E+03  2.271E+00  5.522E+01  5.585E-01  8.550E-01
   1   13    6     8     1    1.6877E+02  8.7147E-01   1.6790E+02  0.000E+00  0.000E+00  0.000E+00  1.02482E+03  2.941E+00  4.265E+01  4.346E-01  6.684E-01
   1   13    5     8     2    1.6790E+02  1.2517E-01   1.6777E+02  0.000E+00  0.000E+00  0.000E+00  1.01856E+03  2.938E+00  4.260E+01  4.341E-01  9.611E-02
   1   13    4     8     3    1.6777E+02 -2.6248E+00   1.7040E+02  0.000E+00  0.000E+00  0.000E+00  1.01232E+03  2.946E+00  4.272E+01  4.353E+00 -2.010E-01
   1   13    3     8     4    1.7040E+02 -3.7429E+00   1.7414E+02  0.000E+00  0.000E+00  0.000E+00  1.00609E+03  2.967E+00  4.302E+01  4.384E+00 -2.846E-01
   1   13    2     8     5    1.7414E+02 -2.6100E+00   1.7675E+02  0.000E+00  0.000E+00  0.000E+00  9.99862E+02  2.987E+00  4.332E+01  4.414E+00 -1.971E-01
   1   13    1     8     6    1.7675E+02 -1.9988E+00   1.7875E+02  0.000E+00  0.000E+00  0.000E+00  9.94877E+02  3.002E+00  4.353E+01  2.661E+00 -2.503E-01
   1    8    6     9     1    0.0000E+00  0.0000E+00   0.0000E+00  0.000E+00  0.000E+00  0.000E+00  1.07875E+03  0.000E+00  4.000E+00  0.000E+00  1.000E+00
   1    8    5     9     2    0.0000E+00  0.0000E+00   0.0000E+00  0.000E+00  0.000E+00  0.000E+00  1.07825E+03  0.000E+00  4.000E+00  0.000E+00  1.000E+00





UNSATURATED ZONE PACKAGE VOLUMETRIC BUDGET FOR  TIME STEP    30 STRESS PERIOD   12
  ------------------------------------------------------------------------------



     CUMULATIVE VOLUMES      L**3       RATES FOR THIS TIME STEP      L**3/T
     ------------------                 ------------------------

           IN:                                      IN:
           ---                                      ---
        INFILTRATION =   468551692.0552          INFILTRATION =           0.8475

          OUT:                                     OUT:
          ----                                     ----
              UZF ET =   428065148.5253                UZF ET =           0.7500
        UZF RECHARGE =       73224.0000          UZF RECHARGE =       0.0000E+00

            IN - OUT =    40413319.5300              IN - OUT =       9.7500E-02

          STORAGE:                                 STORAGE:
          --------                                 --------
      STORAGE CHANGE =    40428919.6148        STORAGE CHANGE =       9.7500E-02

 PERCENT DISCREPANCY IS DIFFERENCE BETWEEN IN-OUT MINUS CHANGE IN STORAGE
 DIVIDED BY THE AVERAGE OF IN AND OUT TIMES 100

 PERCENT DISCREPANCY =          -0.00     PERCENT DISCREPANCY =           0.00






1
  VOLUMETRIC BUDGET FOR AGRICULTURAL FIELDS AT  END OF TIME STEP   30, STRESS PERIOD  12
  ------------------------------------------------------------------------------

     CUMULATIVE VOLUMES      L**3       RATES FOR THIS TIME STEP      L**3/T
     ------------------                 ------------------------

           IN:                                      IN:
           ---                                      ---
           AG WELLS      =    86996240.0000             AG WELLS      =           0.0000
      DIVERSION SEGMENTS =   356960448.0000        DIVERSION SEGMENTS =           0.0000
           GW IRRIGATION =           0.0000             GW IRRIGATION =           0.0000
           SW IRRIGATION =           0.0000             SW IRRIGATION =           0.0000
        SYSTEM LOSSES GW =           0.0000          SYSTEM LOSSES GW =           0.0000
        SYSTEM LOSSES SW =           0.0000          SYSTEM LOSSES SW =           0.0000

                TOTAL IN =   443956672.0000                  TOTAL IN =           0.0000

          OUT:                                     OUT:
          ----                                     ----
           AG WELLS      =           0.0000             AG WELLS      =           0.0000
      DIVERSION SEGMENTS =           0.0000        DIVERSION SEGMENTS =           0.0000
           GW IRRIGATION =    86996240.0000             GW IRRIGATION =           0.0000
           SW IRRIGATION =   356967584.0000             SW IRRIGATION =           0.0000
        SYSTEM LOSSES GW =           0.0000          SYSTEM LOSSES GW =           0.0000
        SYSTEM LOSSES SW =           0.0000          SYSTEM LOSSES SW =           0.0000

               TOTAL OUT =   443963840.0000                 TOTAL OUT =           0.0000

                IN - OUT =       -7168.0000                  IN - OUT =           0.0000

     PERCENT DISCREPANCY =          -0.00         PERCENT DISCREPANCY =           0.00



1
  VOLUMETRIC BUDGET FOR ENTIRE MODEL AT END OF TIME STEP   30, STRESS PERIOD  12
  ------------------------------------------------------------------------------

     CUMULATIVE VOLUMES      L**3       RATES FOR THIS TIME STEP      L**3/T
     ------------------                 ------------------------

           IN:                                      IN:
           ---                                      ---
             STORAGE     =   141646976.0000               STORAGE     =           1.7002
       CONSTANT HEAD     =           0.0000         CONSTANT HEAD     =           0.0000
     HEAD DEP BOUNDS     =     8291084.0000       HEAD DEP BOUNDS     =           0.2858
      STREAM LEAKAGE     =   349423456.0000        STREAM LEAKAGE     =          11.3208
        UZF RECHARGE     =       73223.9531          UZF RECHARGE     =           0.0000
               GW ET     =           0.0000                 GW ET     =           0.0000
     SURFACE LEAKAGE     =           0.0000       SURFACE LEAKAGE     =           0.0000
           AG WELLS      =           0.0000             AG WELLS      =           0.0000

                TOTAL IN =   499434752.0000                  TOTAL IN =          13.3068

          OUT:                                     OUT:
          ----                                     ----
             STORAGE     =    88760832.0000               STORAGE     =           2.0300
       CONSTANT HEAD     =           0.0000         CONSTANT HEAD     =           0.0000
     HEAD DEP BOUNDS     =     8440053.0000       HEAD DEP BOUNDS     =           0.2899
      STREAM LEAKAGE     =   313705152.0000        STREAM LEAKAGE     =          10.9870
        UZF RECHARGE     =           0.0000          UZF RECHARGE     =           0.0000
               GW ET     =     1534490.7500                 GW ET     =           0.0000
     SURFACE LEAKAGE     =           0.0000       SURFACE LEAKAGE     =           0.0000
           AG WELLS      =    86996240.0000             AG WELLS      =           0.0000

               TOTAL OUT =   499436800.0000                 TOTAL OUT =          13.3069

                IN - OUT =       -2048.0000                  IN - OUT =      -9.0599E-05

     PERCENT DISCREPANCY =          -0.00         PERCENT DISCREPANCY =          -0.00






         TIME SUMMARY AT END OF TIME STEP   30 IN STRESS PERIOD   12
                    SECONDS     MINUTES      HOURS       DAYS        YEARS
                    -----------------------------------------------------------
   TIME STEP LENGTH  87667.      1461.1      24.352      1.0147     2.77799E-03
 STRESS PERIOD TIME 2.63000E+06  43833.      730.56      30.440     8.33397E-02
         TOTAL TIME 2.90163E+07 4.83606E+05  8060.1      335.84     0.91947    
1
1
                            STRESS PERIOD NO.   13, LENGTH =   2630000.    
                            -----------------------------------------------

                              NUMBER OF TIME STEPS =    30

                               MULTIPLIER FOR DELT =     1.000

                            INITIAL TIME STEP SIZE =   87666.66    

 REUSING NON-PARAMETER GHB CELLS FROM LAST STRESS PERIOD

      2 GHB CELLS

 REUSING STREAM SEGMENT DATA FROM LAST STRESS PERIOD



            AREAL INFILTRATION RATE
 READING ON UNIT   19 WITH FORMAT: (FREE)              

            1           2           3           4           5           6           7           8           9          10
 ........................................................................................................................
   1   1.0000E-10  2.0000E-10   0.000       0.000       0.000       0.000       0.000       0.000       0.000       0.000    
   2   2.0000E-10  1.0000E-10  2.0000E-10   0.000       0.000      8.0000E-10  8.0000E-10  5.0000E-10   0.000       0.000    
   3    0.000      5.0000E-10  1.0000E-10  1.0000E-10  8.0000E-10  8.0000E-10  5.0000E-10  5.0000E-10   0.000       0.000    
   4   8.0000E-10  5.0000E-10  1.0000E-10  1.0000E-10  1.0000E-10  1.0000E-10  1.0000E-10  1.0000E-10  2.0000E-10   0.000    
   5   8.0000E-10  5.0000E-10  1.0000E-10  1.0000E-10  1.0000E-10  1.0000E-10  1.0000E-10  1.0000E-10  1.0000E-10  1.0000E-10
   6   8.0000E-10  5.0000E-10  5.0000E-10  2.0000E-10  2.0000E-10  1.0000E-10  1.0000E-10  1.0000E-10  1.0000E-10  5.0000E-10
   7   8.0000E-10  5.0000E-10  5.0000E-10  2.0000E-10  2.0000E-10  1.0000E-10  1.0000E-10  2.0000E-10  2.0000E-10   0.000    
   8    0.000      5.0000E-10  5.0000E-10  2.0000E-10  2.0000E-10  1.0000E-10  1.0000E-10  2.0000E-10  5.0000E-10   0.000    
   9    0.000      5.0000E-10  5.0000E-10  2.0000E-10  2.0000E-10  1.0000E-10  1.0000E-10  2.0000E-10  5.0000E-10   0.000    
  10    0.000      5.0000E-10  5.0000E-10  2.0000E-10  2.0000E-10  1.0000E-10  1.0000E-10  2.0000E-10  5.0000E-10  8.0000E-10
  11    0.000      1.0000E-10  1.0000E-10  1.0000E-10  1.0000E-10  1.0000E-10  1.0000E-10  2.0000E-10  5.0000E-10   0.000    
  12   1.0000E-10  1.0000E-10  1.0000E-10  1.0000E-10  1.0000E-10  1.0000E-10  1.0000E-10  1.0000E-10  2.0000E-10   0.000    
  13   1.0000E-10  1.0000E-10  2.0000E-10  2.0000E-10  2.0000E-10  2.0000E-10  2.0000E-10  1.0000E-10  1.0000E-10   0.000    
  14    0.000      2.0000E-10  5.0000E-10  5.0000E-10  5.0000E-10  5.0000E-10  5.0000E-10  2.0000E-10  1.0000E-10   0.000    
  15    0.000       0.000      8.0000E-10  8.0000E-10  8.0000E-10  8.0000E-10   0.000       0.000       0.000       0.000    

                  ET RATE =  5.000000E-10

 USING ET EXTINCTION DEPTH FROM PREVIOUS STRESS PERIOD. CURRENT PERIOD IS:      13

 USING EXTINCTION WATER CONTENT FROM PREVIOUS STRESS PERIOD. CURRENT PERIOD IS:      13

 USING AIR ENTRY PRESSURE FROM PREVIOUS STRESS PERIOD. CURRENT PERIOD IS:      13

 USING ROOT PRESSURE HEAD FROM PREVIOUS STRESS PERIOD. CURRENT PERIOD IS:      13

 USING ROOT ACTIVITY FROM PREVIOUS STRESS PERIOD. CURRENT PERIOD IS:      13

 PROCESSING AG STRESS PERIOD DATA

 READING AG STRESS PERIOD DATA

 READING IRRIGATION SEGMENT

 READING IRRIGATION WELL

 READING SUPPLEMENTAL WELL

 END PROCESSING AG STRESS PERIOD DATA OPTIONS
 
 SOLVING FOR HEAD 
                                                   Max.-Head-Change                         Max.-Flux-Residual
  Residual-Control   Outer-Iter.   Inner-Iter.     Column Row Layer    Maximum-Head-Change  Column Row Layer    Maximum-Flux-Residual          L2-NORM 
          0                 1           2             4    7     1       0.4917660265E-02       4    7    1         0.2587704886E+00      0.6004086393E+00
          0                 2           2             4    7     1      -0.4783548817E-03       4    7    1        -0.2587709219E-01      0.5998593378E-01
          0                 3           1             4    7     1       0.3257418826E-04       4    7    1         0.1811396831E-02      0.4194014854E-02

    ------------------------------------------------
       NWT REQUIRED            3 OUTER ITERATIONS 
       AND A TOTAL OF          5 INNER ITERATIONS.
    ------------------------------------------------

 NO OUTPUT CONTROL FOR STRESS PERIOD   13   TIME STEP    1
 
 SOLVING FOR HEAD 
                                                   Max.-Head-Change                         Max.-Flux-Residual
  Residual-Control   Outer-Iter.   Inner-Iter.     Column Row Layer    Maximum-Head-Change  Column Row Layer    Maximum-Flux-Residual          L2-NORM 
          0                 1           2             4    7     1       0.4856053085E-02       4    7    1         0.2555089511E+00      0.5933994940E+00
          0                 2           2             4    7     1      -0.4723621642E-03       4    7    1        -0.2555093715E-01      0.5929161547E-01
          0                 3           1             4    7     1       0.3216610650E-04       4    7    1         0.1788565978E-02      0.4146005660E-02

    ------------------------------------------------
       NWT REQUIRED            3 OUTER ITERATIONS 
       AND A TOTAL OF          5 INNER ITERATIONS.
    ------------------------------------------------

 NO OUTPUT CONTROL FOR STRESS PERIOD   13   TIME STEP    2
 
 SOLVING FOR HEAD 
                                                   Max.-Head-Change                         Max.-Flux-Residual
  Residual-Control   Outer-Iter.   Inner-Iter.     Column Row Layer    Maximum-Head-Change  Column Row Layer    Maximum-Flux-Residual          L2-NORM 
          0                 1           2             4    7     1       0.4795987187E-02       4    7    1         0.2523294891E+00      0.5866636127E+00
          0                 2           2             4    7     1      -0.4665193721E-03       4    7    1        -0.2523298972E-01      0.5862396418E-01
          0                 3           1             4    7     1       0.3176823459E-04       4    7    1         0.1766309666E-02      0.4099798647E-02

    ------------------------------------------------
       NWT REQUIRED            3 OUTER ITERATIONS 
       AND A TOTAL OF          5 INNER ITERATIONS.
    ------------------------------------------------

 NO OUTPUT CONTROL FOR STRESS PERIOD   13   TIME STEP    3
 
 SOLVING FOR HEAD 
                                                   Max.-Head-Change                         Max.-Flux-Residual
  Residual-Control   Outer-Iter.   Inner-Iter.     Column Row Layer    Maximum-Head-Change  Column Row Layer    Maximum-Flux-Residual          L2-NORM 
          0                 1           2             4    7     1       0.4736595289E-02       4    7    1         0.2491855369E+00      0.5801609241E+00
          0                 2           2             4    7     1      -0.4607421422E-03       4    7    1        -0.2491859332E-01      0.5797878577E-01
          0                 3           1             4    7     1       0.3137482610E-04       4    7    1         0.1744301888E-02      0.4055049848E-02

    ------------------------------------------------
       NWT REQUIRED            3 OUTER ITERATIONS 
       AND A TOTAL OF          5 INNER ITERATIONS.
    ------------------------------------------------

 NO OUTPUT CONTROL FOR STRESS PERIOD   13   TIME STEP    4
 
 SOLVING FOR HEAD 
                                                   Max.-Head-Change                         Max.-Flux-Residual
  Residual-Control   Outer-Iter.   Inner-Iter.     Column Row Layer    Maximum-Head-Change  Column Row Layer    Maximum-Flux-Residual          L2-NORM 
          0                 1           2             4    7     1       0.4678680658E-02       4    7    1         0.2461209349E+00      0.5738737924E+00
          0                 2           2             4    7     1      -0.4551086113E-03       4    7    1        -0.2461213196E-01      0.5735446668E-01
          0                 3           1             4    7     1       0.3099120405E-04       4    7    1         0.1722849622E-02      0.4011813300E-02

    ------------------------------------------------
       NWT REQUIRED            3 OUTER ITERATIONS 
       AND A TOTAL OF          5 INNER ITERATIONS.
    ------------------------------------------------

 NO OUTPUT CONTROL FOR STRESS PERIOD   13   TIME STEP    5
 
 SOLVING FOR HEAD 
                                                   Max.-Head-Change                         Max.-Flux-Residual
  Residual-Control   Outer-Iter.   Inner-Iter.     Column Row Layer    Maximum-Head-Change  Column Row Layer    Maximum-Flux-Residual          L2-NORM 
          0                 1           2             4    7     1       0.4621663273E-02       4    7    1         0.2431033242E+00      0.5677865555E+00
          0                 2           2             4    7     1      -0.4495623581E-03       4    7    1        -0.2431036977E-01      0.5674968587E-01
          0                 3           1             4    7     1       0.3061352510E-04       4    7    1         0.1701726267E-02      0.3969836883E-02

    ------------------------------------------------
       NWT REQUIRED            3 OUTER ITERATIONS 
       AND A TOTAL OF          5 INNER ITERATIONS.
    ------------------------------------------------

 NO OUTPUT CONTROL FOR STRESS PERIOD   13   TIME STEP    6
 
 SOLVING FOR HEAD 
                                                   Max.-Head-Change                         Max.-Flux-Residual
  Residual-Control   Outer-Iter.   Inner-Iter.     Column Row Layer    Maximum-Head-Change  Column Row Layer    Maximum-Flux-Residual          L2-NORM 
          0                 1           2             4    7     1       0.4565510224E-02       4    7    1         0.2401322345E+00      0.5618607105E+00
          0                 2           2             4    7     1      -0.4441001820E-03       4    7    1        -0.2401325973E-01      0.5616057610E-01
          0                 3           1             4    7     1       0.3024157128E-04       4    7    1         0.1680928572E-02      0.3929031336E-02

    ------------------------------------------------
       NWT REQUIRED            3 OUTER ITERATIONS 
       AND A TOTAL OF          5 INNER ITERATIONS.
    ------------------------------------------------

 NO OUTPUT CONTROL FOR STRESS PERIOD   13   TIME STEP    7
 
 SOLVING FOR HEAD 
                                                   Max.-Head-Change                         Max.-Flux-Residual
  Residual-Control   Outer-Iter.   Inner-Iter.     Column Row Layer    Maximum-Head-Change  Column Row Layer    Maximum-Flux-Residual          L2-NORM 
          0                 1           2             4    7     1       0.4510486234E-02       4    7    1         0.2372207612E+00      0.5561160288E+00
          0                 2           2             4    7     1      -0.4387478328E-03       4    7    1        -0.2372211134E-01      0.5558896375E-01
          0                 3           1             4    7     1       0.2987709634E-04       4    7    1         0.1660548188E-02      0.3889267626E-02

    ------------------------------------------------
       NWT REQUIRED            3 OUTER ITERATIONS 
       AND A TOTAL OF          5 INNER ITERATIONS.
    ------------------------------------------------

 NO OUTPUT CONTROL FOR STRESS PERIOD   13   TIME STEP    8
 
 SOLVING FOR HEAD 
                                                   Max.-Head-Change                         Max.-Flux-Residual
  Residual-Control   Outer-Iter.   Inner-Iter.     Column Row Layer    Maximum-Head-Change  Column Row Layer    Maximum-Flux-Residual          L2-NORM 
          0                 1           2             4    7     1       0.4456561710E-02       4    7    1         0.2343678284E+00      0.5505221641E+00
          0                 2           2             4    7     1      -0.4335024323E-03       4    7    1        -0.2343681707E-01      0.5503217848E-01
          0                 3           1             4    7     1       0.2951990383E-04       4    7    1         0.1640577578E-02      0.3850411037E-02

    ------------------------------------------------
       NWT REQUIRED            3 OUTER ITERATIONS 
       AND A TOTAL OF          5 INNER ITERATIONS.
    ------------------------------------------------

 NO OUTPUT CONTROL FOR STRESS PERIOD   13   TIME STEP    9
 
 SOLVING FOR HEAD 
                                                   Max.-Head-Change                         Max.-Flux-Residual
  Residual-Control   Outer-Iter.   Inner-Iter.     Column Row Layer    Maximum-Head-Change  Column Row Layer    Maximum-Flux-Residual          L2-NORM 
          0                 1           2             4    7     1       0.4403430344E-02       4    7    1         0.2315570993E+00      0.5450597164E+00
          0                 2           2             4    7     1      -0.4283341849E-03       4    7    1        -0.2315574318E-01      0.5448818404E-01
          0                 3           1             4    7     1       0.2916796547E-04       4    7    1         0.1620902411E-02      0.3812576590E-02

    ------------------------------------------------
       NWT REQUIRED            3 OUTER ITERATIONS 
       AND A TOTAL OF          5 INNER ITERATIONS.
    ------------------------------------------------

 NO OUTPUT CONTROL FOR STRESS PERIOD   13   TIME STEP   10
 
 SOLVING FOR HEAD 
                                                   Max.-Head-Change                         Max.-Flux-Residual
  Residual-Control   Outer-Iter.   Inner-Iter.     Column Row Layer    Maximum-Head-Change  Column Row Layer    Maximum-Flux-Residual          L2-NORM 
          0                 1           2             4    7     1       0.4351346618E-02       4    7    1         0.2288022966E+00      0.5397335762E+00
          0                 2           2             4    7     1      -0.4232678450E-03       4    7    1        -0.2288026199E-01      0.5395740918E-01
          0                 3           1             4    7     1       0.2882296708E-04       4    7    1         0.1601618729E-02      0.3775574527E-02

    ------------------------------------------------
       NWT REQUIRED            3 OUTER ITERATIONS 
       AND A TOTAL OF          5 INNER ITERATIONS.
    ------------------------------------------------

 NO OUTPUT CONTROL FOR STRESS PERIOD   13   TIME STEP   11
 
 SOLVING FOR HEAD 
                                                   Max.-Head-Change                         Max.-Flux-Residual
  Residual-Control   Outer-Iter.   Inner-Iter.     Column Row Layer    Maximum-Head-Change  Column Row Layer    Maximum-Flux-Residual          L2-NORM 
          0                 1           2             4    7     1       0.4300010441E-02       4    7    1         0.2260870103E+00      0.5345213234E+00
          0                 2           2             4    7     1      -0.4182742213E-03       4    7    1        -0.2260873246E-01      0.5343797742E-01
          0                 3           1             4    7     1       0.2848291942E-04       4    7    1         0.1582611651E-02      0.3739127637E-02

    ------------------------------------------------
       NWT REQUIRED            3 OUTER ITERATIONS 
       AND A TOTAL OF          5 INNER ITERATIONS.
    ------------------------------------------------

 NO OUTPUT CONTROL FOR STRESS PERIOD   13   TIME STEP   12
 
 SOLVING FOR HEAD 
                                                   Max.-Head-Change                         Max.-Flux-Residual
  Residual-Control   Outer-Iter.   Inner-Iter.     Column Row Layer    Maximum-Head-Change  Column Row Layer    Maximum-Flux-Residual          L2-NORM 
          0                 1           2             4    7     1       0.4249683824E-02       4    7    1         0.2234252859E+00      0.5294362883E+00
          0                 2           2             4    7     1      -0.4133788011E-03       4    7    1        -0.2234255915E-01      0.5293100760E-01
          0                 3           1             4    7     1       0.2814955967E-04       4    7    1         0.1563979524E-02      0.3704073983E-02

    ------------------------------------------------
       NWT REQUIRED            3 OUTER ITERATIONS 
       AND A TOTAL OF          5 INNER ITERATIONS.
    ------------------------------------------------

 NO OUTPUT CONTROL FOR STRESS PERIOD   13   TIME STEP   13
 
 SOLVING FOR HEAD 
                                                   Max.-Head-Change                         Max.-Flux-Residual
  Residual-Control   Outer-Iter.   Inner-Iter.     Column Row Layer    Maximum-Head-Change  Column Row Layer    Maximum-Flux-Residual          L2-NORM 
          0                 1           2             4    7     1       0.4200337488E-02       4    7    1         0.2208159062E+00      0.5244501895E+00
          0                 2           2             4    7     1      -0.4085787353E-03       4    7    1        -0.2208162031E-01      0.5243384672E-01
          0                 3           1             4    7     1       0.2782269305E-04       4    7    1         0.1545713794E-02      0.3669423803E-02

    ------------------------------------------------
       NWT REQUIRED            3 OUTER ITERATIONS 
       AND A TOTAL OF          5 INNER ITERATIONS.
    ------------------------------------------------

 NO OUTPUT CONTROL FOR STRESS PERIOD   13   TIME STEP   14
 
 SOLVING FOR HEAD 
                                                   Max.-Head-Change                         Max.-Flux-Residual
  Residual-Control   Outer-Iter.   Inner-Iter.     Column Row Layer    Maximum-Head-Change  Column Row Layer    Maximum-Flux-Residual          L2-NORM 
          0                 1           2             4    7     1       0.4151673241E-02       4    7    1         0.2182425498E+00      0.5195730234E+00
          0                 2           2             4    7     1      -0.4038450191E-03       4    7    1        -0.2182428385E-01      0.5194705510E-01
          0                 3           1             4    7     1       0.2750034453E-04       4    7    1         0.1527700244E-02      0.3635237443E-02

    ------------------------------------------------
       NWT REQUIRED            3 OUTER ITERATIONS 
       AND A TOTAL OF          5 INNER ITERATIONS.
    ------------------------------------------------

 NO OUTPUT CONTROL FOR STRESS PERIOD   13   TIME STEP   15
 
 SOLVING FOR HEAD 
                                                   Max.-Head-Change                         Max.-Flux-Residual
  Residual-Control   Outer-Iter.   Inner-Iter.     Column Row Layer    Maximum-Head-Change  Column Row Layer    Maximum-Flux-Residual          L2-NORM 
          0                 1           2             4    7     1       0.4103949904E-02       4    7    1         0.2157193619E+00      0.5147839734E+00
          0                 2           2             4    7     1      -0.3992028283E-03       4    7    1        -0.2157196429E-01      0.5146925358E-01
          0                 3           1             4    7     1       0.2718422880E-04       4    7    1         0.1510037863E-02      0.3602035119E-02

    ------------------------------------------------
       NWT REQUIRED            3 OUTER ITERATIONS 
       AND A TOTAL OF          5 INNER ITERATIONS.
    ------------------------------------------------

 NO OUTPUT CONTROL FOR STRESS PERIOD   13   TIME STEP   16
 
 SOLVING FOR HEAD 
                                                   Max.-Head-Change                         Max.-Flux-Residual
  Residual-Control   Outer-Iter.   Inner-Iter.     Column Row Layer    Maximum-Head-Change  Column Row Layer    Maximum-Flux-Residual          L2-NORM 
          0                 1           2             4    7     1       0.4056869401E-02       4    7    1         0.2132301558E+00      0.5100870723E+00
          0                 2           2             4    7     1      -0.3946231681E-03       4    7    1        -0.2132304290E-01      0.5100055875E-01
          0                 3           1             4    7     1       0.2687237129E-04       4    7    1         0.1492613392E-02      0.3569355301E-02

    ------------------------------------------------
       NWT REQUIRED            3 OUTER ITERATIONS 
       AND A TOTAL OF          5 INNER ITERATIONS.
    ------------------------------------------------

 NO OUTPUT CONTROL FOR STRESS PERIOD   13   TIME STEP   17
 
 SOLVING FOR HEAD 
                                                   Max.-Head-Change                         Max.-Flux-Residual
  Residual-Control   Outer-Iter.   Inner-Iter.     Column Row Layer    Maximum-Head-Change  Column Row Layer    Maximum-Flux-Residual          L2-NORM 
          0                 1           2             4    7     1       0.4010962370E-02       4    7    1         0.2108038863E+00      0.5054842088E+00
          0                 2           2             4    7     1      -0.3901576551E-03       4    7    1        -0.2108041522E-01      0.5054106592E-01
          0                 3           1             4    7     1       0.2656828637E-04       4    7    1         0.1475629446E-02      0.3537222407E-02

    ------------------------------------------------
       NWT REQUIRED            3 OUTER ITERATIONS 
       AND A TOTAL OF          5 INNER ITERATIONS.
    ------------------------------------------------

 NO OUTPUT CONTROL FOR STRESS PERIOD   13   TIME STEP   18
 
 SOLVING FOR HEAD 
                                                   Max.-Head-Change                         Max.-Flux-Residual
  Residual-Control   Outer-Iter.   Inner-Iter.     Column Row Layer    Maximum-Head-Change  Column Row Layer    Maximum-Flux-Residual          L2-NORM 
          0                 1           2             4    7     1       0.3965658106E-02       4    7    1         0.2084088532E+00      0.5009696920E+00
          0                 2           2             4    7     1      -0.3857507745E-03       4    7    1        -0.2084091116E-01      0.5009026514E-01
          0                 3           1             4    7     1       0.2626819437E-04       4    7    1         0.1458864161E-02      0.3505742124E-02

    ------------------------------------------------
       NWT REQUIRED            3 OUTER ITERATIONS 
       AND A TOTAL OF          5 INNER ITERATIONS.
    ------------------------------------------------

 NO OUTPUT CONTROL FOR STRESS PERIOD   13   TIME STEP   19
 
 SOLVING FOR HEAD 
                                                   Max.-Head-Change                         Max.-Flux-Residual
  Residual-Control   Outer-Iter.   Inner-Iter.     Column Row Layer    Maximum-Head-Change  Column Row Layer    Maximum-Flux-Residual          L2-NORM 
          0                 1           2             4    7     1       0.3920940358E-02       4    7    1         0.2060450729E+00      0.4965359654E+00
          0                 2           2             4    7     1      -0.3814009471E-03       4    7    1        -0.2060453245E-01      0.4964760147E-01
          0                 3           1             4    7     1       0.2597198735E-04       4    7    1         0.1442317658E-02      0.3474771017E-02

    ------------------------------------------------
       NWT REQUIRED            3 OUTER ITERATIONS 
       AND A TOTAL OF          5 INNER ITERATIONS.
    ------------------------------------------------

 NO OUTPUT CONTROL FOR STRESS PERIOD   13   TIME STEP   20
 
 SOLVING FOR HEAD 
                                                   Max.-Head-Change                         Max.-Flux-Residual
  Residual-Control   Outer-Iter.   Inner-Iter.     Column Row Layer    Maximum-Head-Change  Column Row Layer    Maximum-Flux-Residual          L2-NORM 
          0                 1           2             4    7     1       0.3877069216E-02       4    7    1         0.2037265061E+00      0.4921693810E+00
          0                 2           2             4    7     1      -0.3771334717E-03       4    7    1        -0.2037267512E-01      0.4921139381E-01
          0                 3           1             4    7     1       0.2568138831E-04       4    7    1         0.1426087651E-02      0.3444301426E-02

    ------------------------------------------------
       NWT REQUIRED            3 OUTER ITERATIONS 
       AND A TOTAL OF          5 INNER ITERATIONS.
    ------------------------------------------------

 NO OUTPUT CONTROL FOR STRESS PERIOD   13   TIME STEP   21
 
 SOLVING FOR HEAD 
                                                   Max.-Head-Change                         Max.-Flux-Residual
  Residual-Control   Outer-Iter.   Inner-Iter.     Column Row Layer    Maximum-Head-Change  Column Row Layer    Maximum-Flux-Residual          L2-NORM 
          0                 1           2             4    7     1       0.3834028041E-02       4    7    1         0.2014518348E+00      0.4878786671E+00
          0                 2           2             4    7     1      -0.3729467295E-03       4    7    1        -0.2014520734E-01      0.4878289270E-01
          0                 3           1             4    7     1       0.2539628696E-04       4    7    1         0.1410164910E-02      0.3414332058E-02

    ------------------------------------------------
       NWT REQUIRED            3 OUTER ITERATIONS 
       AND A TOTAL OF          5 INNER ITERATIONS.
    ------------------------------------------------

 NO OUTPUT CONTROL FOR STRESS PERIOD   13   TIME STEP   22
 
 SOLVING FOR HEAD 
                                                   Max.-Head-Change                         Max.-Flux-Residual
  Residual-Control   Outer-Iter.   Inner-Iter.     Column Row Layer    Maximum-Head-Change  Column Row Layer    Maximum-Flux-Residual          L2-NORM 
          0                 1           2             4    7     1       0.3791790996E-02       4    7    1         0.1992201964E+00      0.4836747252E+00
          0                 2           2             4    7     1      -0.3688382074E-03       4    7    1        -0.1992204288E-01      0.4836290599E-01
          0                 3           1             4    7     1       0.2511651146E-04       4    7    1         0.1394543374E-02      0.3385030354E-02

    ------------------------------------------------
       NWT REQUIRED            3 OUTER ITERATIONS 
       AND A TOTAL OF          5 INNER ITERATIONS.
    ------------------------------------------------

 NO OUTPUT CONTROL FOR STRESS PERIOD   13   TIME STEP   23
 
 SOLVING FOR HEAD 
                                                   Max.-Head-Change                         Max.-Flux-Residual
  Residual-Control   Outer-Iter.   Inner-Iter.     Column Row Layer    Maximum-Head-Change  Column Row Layer    Maximum-Flux-Residual          L2-NORM 
          0                 1           2             4    7     1       0.3750065595E-02       4    7    1         0.1970154472E+00      0.4795248750E+00
          0                 2           2             4    7     1      -0.3647794541E-03       4    7    1        -0.1970156731E-01      0.4794824664E-01
          0                 3           1             4    7     1       0.2484012536E-04       4    7    1         0.1379110078E-02      0.3355956045E-02

    ------------------------------------------------
       NWT REQUIRED            3 OUTER ITERATIONS 
       AND A TOTAL OF          5 INNER ITERATIONS.
    ------------------------------------------------

 NO OUTPUT CONTROL FOR STRESS PERIOD   13   TIME STEP   24
 
 SOLVING FOR HEAD 
                                                   Max.-Head-Change                         Max.-Flux-Residual
  Residual-Control   Outer-Iter.   Inner-Iter.     Column Row Layer    Maximum-Head-Change  Column Row Layer    Maximum-Flux-Residual          L2-NORM 
          0                 1           2             4    7     1       0.3709118141E-02       4    7    1         0.1948520301E+00      0.4754560291E+00
          0                 2           2             4    7     1      -0.3607963751E-03       4    7    1        -0.1948522501E-01      0.4754179396E-01
          0                 3           1             4    7     1       0.2456889282E-04       4    7    1         0.1363966142E-02      0.3327569214E-02

    ------------------------------------------------
       NWT REQUIRED            3 OUTER ITERATIONS 
       AND A TOTAL OF          5 INNER ITERATIONS.
    ------------------------------------------------

 NO OUTPUT CONTROL FOR STRESS PERIOD   13   TIME STEP   25
 
 SOLVING FOR HEAD 
                                                   Max.-Head-Change                         Max.-Flux-Residual
  Residual-Control   Outer-Iter.   Inner-Iter.     Column Row Layer    Maximum-Head-Change  Column Row Layer    Maximum-Flux-Residual          L2-NORM 
          0                 1           2             4    7     1       0.3668924566E-02       4    7    1         0.1927289486E+00      0.4714524740E+00
          0                 2           2             4    7     1      -0.3568866283E-03       4    7    1        -0.1927291632E-01      0.4714176177E-01
          0                 3           1             4    7     1       0.2430265361E-04       4    7    1         0.1349104527E-02      0.3299599315E-02

    ------------------------------------------------
       NWT REQUIRED            3 OUTER ITERATIONS 
       AND A TOTAL OF          5 INNER ITERATIONS.
    ------------------------------------------------

 NO OUTPUT CONTROL FOR STRESS PERIOD   13   TIME STEP   26
 
 SOLVING FOR HEAD 
                                                   Max.-Head-Change                         Max.-Flux-Residual
  Residual-Control   Outer-Iter.   Inner-Iter.     Column Row Layer    Maximum-Head-Change  Column Row Layer    Maximum-Flux-Residual          L2-NORM 
          0                 1           2             4    7     1       0.3629194960E-02       4    7    1         0.1906301504E+00      0.4674946362E+00
          0                 2           2             4    7     1      -0.3530220125E-03       4    7    1        -0.1906303594E-01      0.4674623501E-01
          0                 3           1             4    7     1       0.2403948761E-04       4    7    1         0.1334412884E-02      0.3271961727E-02

    ------------------------------------------------
       NWT REQUIRED            3 OUTER ITERATIONS 
       AND A TOTAL OF          5 INNER ITERATIONS.
    ------------------------------------------------

 NO OUTPUT CONTROL FOR STRESS PERIOD   13   TIME STEP   27
 
 SOLVING FOR HEAD 
                                                   Max.-Head-Change                         Max.-Flux-Residual
  Residual-Control   Outer-Iter.   Inner-Iter.     Column Row Layer    Maximum-Head-Change  Column Row Layer    Maximum-Flux-Residual          L2-NORM 
          0                 1           2             4    7     1       0.3590199607E-02       4    7    1         0.1885702129E+00      0.4636204441E+00
          0                 2           2             4    7     1      -0.3492288203E-03       4    7    1        -0.1885704166E-01      0.4635904627E-01
          0                 3           1             4    7     1       0.2378118524E-04       4    7    1         0.1319993289E-02      0.3244882598E-02

    ------------------------------------------------
       NWT REQUIRED            3 OUTER ITERATIONS 
       AND A TOTAL OF          5 INNER ITERATIONS.
    ------------------------------------------------

 NO OUTPUT CONTROL FOR STRESS PERIOD   13   TIME STEP   28
 
 SOLVING FOR HEAD 
                                                   Max.-Head-Change                         Max.-Flux-Residual
  Residual-Control   Outer-Iter.   Inner-Iter.     Column Row Layer    Maximum-Head-Change  Column Row Layer    Maximum-Flux-Residual          L2-NORM 
          0                 1           2             4    7     1       0.3551911150E-02       4    7    1         0.1865483456E+00      0.4597967249E+00
          0                 2           2             4    7     1      -0.3455043900E-03       4    7    1        -0.1865485443E-01      0.4597696113E-01
          0                 3           1             4    7     1       0.2352756545E-04       4    7    1         0.1305840171E-02      0.3218165731E-02

    ------------------------------------------------
       NWT REQUIRED            3 OUTER ITERATIONS 
       AND A TOTAL OF          5 INNER ITERATIONS.
    ------------------------------------------------

 NO OUTPUT CONTROL FOR STRESS PERIOD   13   TIME STEP   29
 
 SOLVING FOR HEAD 
                                                   Max.-Head-Change                         Max.-Flux-Residual
  Residual-Control   Outer-Iter.   Inner-Iter.     Column Row Layer    Maximum-Head-Change  Column Row Layer    Maximum-Flux-Residual          L2-NORM 
          0                 1           2             4    7     1       0.3514046147E-02       4    7    1         0.1845483252E+00      0.4560279882E+00
          0                 2           2             4    7     1      -0.3418211502E-03       4    7    1        -0.1845485186E-01      0.4560025065E-01
          0                 3           1             4    7     1       0.2327675072E-04       4    7    1         0.1291840009E-02      0.3191775024E-02

    ------------------------------------------------
       NWT REQUIRED            3 OUTER ITERATIONS 
       AND A TOTAL OF          5 INNER ITERATIONS.
    ------------------------------------------------

 NO OUTPUT CONTROL FOR STRESS PERIOD   13   TIME STEP   30



 STREAM LISTING     PERIOD     13   STEP       30

 LAYER ROW COL. STREAM  RCH.  FLOW INTO     FLOW TO   FLOW OUT OF   OVRLND.     DIRECT     STREAM       STREAM     STREAM     STREAM   STREAMBED  STREAMBED
                SEG.NO.  NO.  STRM. RCH.    AQUIFER    STRM. RCH.    RUNOFF     PRECIP       ET          HEAD       DEPTH      WIDTH   CONDCTNC.   GRADIENT

   1    1    1     1     1    1.7250E+01  2.0269E-01   1.7047E+01  0.000E+00  0.000E+00  0.000E+00  1.09410E+03  1.052E+00  1.112E+01  5.002E-02  1.351E+00
   1    2    2     1     2    1.7047E+01  3.1258E-01   1.6735E+01  0.000E+00  0.000E+00  0.000E+00  1.08911E+03  1.047E+00  1.103E+01  7.723E-02  1.349E+00
   1    3    3     1     3    1.6735E+01  2.6529E-01   1.6469E+01  0.000E+00  0.000E+00  0.000E+00  1.08346E+03  1.042E+00  1.094E+01  6.563E-02  1.347E+00
   1    3    4     1     4    1.6469E+01  2.4324E-01   1.6226E+01  0.000E+00  0.000E+00  0.000E+00  1.07845E+03  1.038E+00  1.085E+01  6.024E-02  1.346E+00
   1    4    5     2     1    1.4226E+01  3.0073E-01   1.3925E+01  0.000E+00  0.000E+00  0.000E+00  1.07279E+03  8.555E-01  1.200E+01  7.800E-02  1.285E+00
   1    5    6     2     2    1.3925E+01  2.3075E-01   1.3695E+01  0.000E+00  0.000E+00  0.000E+00  1.06736E+03  8.458E-01  1.200E+01  6.000E-02  1.282E+00
   1    6    6     2     3    1.3695E+01  2.3024E-01   1.3464E+01  0.000E+00  0.000E+00  0.000E+00  1.06263E+03  8.373E-01  1.200E+01  6.000E-02  1.279E+00
   1    7    6     2     4    1.3464E+01  2.2972E-01   1.3235E+01  0.000E+00  0.000E+00  0.000E+00  1.05790E+03  8.287E-01  1.200E+01  6.000E-02  1.276E+00
   1    8    6     2     5    1.3235E+01  2.2921E-01   1.3005E+01  0.000E+00  0.000E+00  0.000E+00  1.05318E+03  8.202E-01  1.200E+01  6.000E-02  1.273E+00
   1    3    5     3     1    2.0000E+00  2.8252E-01   1.7175E+00  0.000E+00  0.000E+00  0.000E+00  1.07555E+03  1.909E+00  9.636E+00  7.227E-02  1.955E+00
   1    3    6     3     2    1.7175E+00  2.4905E-01   1.4684E+00  0.000E+00  0.000E+00  0.000E+00  1.07264E+03  1.727E+00  8.909E+00  6.682E-02  1.864E+00
   1    3    7     3     3    1.4684E+00  1.9718E-01   1.2712E+00  0.000E+00  0.000E+00  0.000E+00  1.06987E+03  1.555E+00  8.218E+00  5.547E-02  1.777E+00
   1    4    8     3     4    1.2712E+00  2.2567E-01   1.0456E+00  0.000E+00  0.000E+00  0.000E+00  1.06682E+03  1.364E+00  7.455E+00  6.709E-02  1.682E+00
   1    5    8     3     5    1.0456E+00  1.5790E-01   8.8768E-01  0.000E+00  0.000E+00  0.000E+00  1.06362E+03  1.164E+00  6.655E+00  4.991E-02  1.582E+00
   1    6    8     3     6    8.8768E-01  5.5980E-02   8.3170E-01  0.000E+00  0.000E+00  0.000E+00  1.06158E+03  1.036E+00  6.145E+00  1.844E-02  1.518E+00
   1    5   10     4     1    1.0000E+01  9.0919E-02   9.9091E+00  0.000E+00  0.000E+00  0.000E+00  1.07836E+03  6.368E-01  1.000E+01  2.500E-02  1.212E+00
   1    5    9     4     2    9.9091E+00  1.8158E-01   9.7275E+00  0.000E+00  0.000E+00  0.000E+00  1.07154E+03  6.315E-01  1.000E+01  5.000E-02  1.211E+00
   1    6    8     4     3    9.7275E+00  1.2689E-01   9.6006E+00  0.000E+00  0.000E+00  0.000E+00  1.06381E+03  6.256E-01  1.000E+01  3.500E-02  1.209E+00
   1    6    8     5     1    1.0432E+01  2.2686E-01   1.0205E+01  0.000E+00  0.000E+00  0.000E+00  1.05868E+03  6.790E-01  1.542E+01  6.166E-02  1.226E+00
   1    7    7     5     2    1.0205E+01  2.7894E-01   9.9265E+00  0.000E+00  0.000E+00  0.000E+00  1.05417E+03  6.732E-01  1.519E+01  7.594E-02  1.224E+00
   1    8    7     5     3    9.9265E+00  1.9221E-01   9.7343E+00  0.000E+00  0.000E+00  0.000E+00  1.04992E+03  6.676E-01  1.497E+01  5.241E-02  1.223E+00
   1    8    6     5     4    9.7343E+00  1.3577E-01   9.5985E+00  0.000E+00  0.000E+00  0.000E+00  1.04691E+03  6.637E-01  1.482E+01  3.706E-02  1.221E+00
   1    9    6     6     1    2.2604E+01  2.4874E-01   2.2355E+01  0.000E+00  0.000E+00  0.000E+00  1.04387E+03  1.146E+00  1.200E+01  6.000E-02  1.382E+00
   1   10    7     6     2    2.2355E+01  2.4828E-01   2.2107E+01  0.000E+00  0.000E+00  0.000E+00  1.03932E+03  1.138E+00  1.200E+01  6.000E-02  1.379E+00
   1   11    7     6     3    2.2107E+01  2.4782E-01   2.1859E+01  0.000E+00  0.000E+00  0.000E+00  1.03477E+03  1.130E+00  1.200E+01  6.000E-02  1.377E+00
   1   12    7     6     4    2.1859E+01  2.4736E-01   2.1612E+01  0.000E+00  0.000E+00  0.000E+00  1.03021E+03  1.123E+00  1.200E+01  6.000E-02  1.374E+00
   1   13    7     6     5    2.1612E+01 -2.1164E-02   2.1633E+01  0.000E+00  0.000E+00  0.000E+00  1.02703E+03  1.119E+00  1.200E+01  2.400E-01 -2.939E-02
   1   14    9     7     1    1.5000E+02  1.3361E+00   1.4866E+02  0.000E+00  0.000E+00  0.000E+00  1.03987E+03  2.288E+00  5.529E+01  5.593E-01  7.963E-01
   1   13    8     7     2    1.4866E+02  1.8234E+00   1.4684E+02  0.000E+00  0.000E+00  0.000E+00  1.03478E+03  2.279E+00  5.526E+01  6.148E-01  9.887E-01
   1   13    7     7     3    1.4684E+02  1.4372E+00   1.4540E+02  0.000E+00  0.000E+00  0.000E+00  1.02969E+03  2.271E+00  5.522E+01  5.585E-01  8.578E-01
   1   13    6     8     1    1.6704E+02  8.6801E-01   1.6617E+02  0.000E+00  0.000E+00  0.000E+00  1.02480E+03  2.930E+00  4.248E+01  4.329E-01  6.683E-01
   1   13    5     8     2    1.6617E+02  1.2487E-01   1.6604E+02  0.000E+00  0.000E+00  0.000E+00  1.01855E+03  2.927E+00  4.244E+01  4.324E-01  9.625E-02
   1   13    4     8     3    1.6604E+02 -2.6132E+00   1.6866E+02  0.000E+00  0.000E+00  0.000E+00  1.01231E+03  2.935E+00  4.256E+01  4.337E+00 -2.009E-01
   1   13    3     8     4    1.6866E+02 -3.7307E+00   1.7239E+02  0.000E+00  0.000E+00  0.000E+00  1.00608E+03  2.956E+00  4.286E+01  4.367E+00 -2.847E-01
   1   13    2     8     5    1.7239E+02 -2.5971E+00   1.7498E+02  0.000E+00  0.000E+00  0.000E+00  9.99851E+02  2.976E+00  4.315E+01  4.397E+00 -1.969E-01
   1   13    1     8     6    1.7498E+02 -1.9897E+00   1.7697E+02  0.000E+00  0.000E+00  0.000E+00  9.94866E+02  2.991E+00  4.337E+01  2.651E+00 -2.501E-01
   1    8    6     9     1    0.0000E+00  0.0000E+00   0.0000E+00  0.000E+00  0.000E+00  0.000E+00  1.07875E+03  0.000E+00  4.000E+00  0.000E+00  1.000E+00
   1    8    5     9     2    0.0000E+00  0.0000E+00   0.0000E+00  0.000E+00  0.000E+00  0.000E+00  1.07825E+03  0.000E+00  4.000E+00  0.000E+00  1.000E+00





UNSATURATED ZONE PACKAGE VOLUMETRIC BUDGET FOR  TIME STEP    30 STRESS PERIOD   13
  ------------------------------------------------------------------------------



     CUMULATIVE VOLUMES      L**3       RATES FOR THIS TIME STEP      L**3/T
     ------------------                 ------------------------

           IN:                                      IN:
           ---                                      ---
        INFILTRATION =   470780616.9280          INFILTRATION =           0.8475

          OUT:                                     OUT:
          ----                                     ----
              UZF ET =   430037648.3912                UZF ET =           0.7500
        UZF RECHARGE =       73224.0000          UZF RECHARGE =       0.0000E+00

            IN - OUT =    40669744.5368              IN - OUT =       9.7500E-02

          STORAGE:                                 STORAGE:
          --------                                 --------
      STORAGE CHANGE =    40685344.6452        STORAGE CHANGE =       9.7500E-02

 PERCENT DISCREPANCY IS DIFFERENCE BETWEEN IN-OUT MINUS CHANGE IN STORAGE
 DIVIDED BY THE AVERAGE OF IN AND OUT TIMES 100

 PERCENT DISCREPANCY =          -0.00     PERCENT DISCREPANCY =           0.00






1
  VOLUMETRIC BUDGET FOR AGRICULTURAL FIELDS AT  END OF TIME STEP   30, STRESS PERIOD  13
  ------------------------------------------------------------------------------

     CUMULATIVE VOLUMES      L**3       RATES FOR THIS TIME STEP      L**3/T
     ------------------                 ------------------------

           IN:                                      IN:
           ---                                      ---
           AG WELLS      =    86996240.0000             AG WELLS      =           0.0000
      DIVERSION SEGMENTS =   356960448.0000        DIVERSION SEGMENTS =           0.0000
           GW IRRIGATION =           0.0000             GW IRRIGATION =           0.0000
           SW IRRIGATION =           0.0000             SW IRRIGATION =           0.0000
        SYSTEM LOSSES GW =           0.0000          SYSTEM LOSSES GW =           0.0000
        SYSTEM LOSSES SW =           0.0000          SYSTEM LOSSES SW =           0.0000

                TOTAL IN =   443956672.0000                  TOTAL IN =           0.0000

          OUT:                                     OUT:
          ----                                     ----
           AG WELLS      =           0.0000             AG WELLS      =           0.0000
      DIVERSION SEGMENTS =           0.0000        DIVERSION SEGMENTS =           0.0000
           GW IRRIGATION =    86996240.0000             GW IRRIGATION =           0.0000
           SW IRRIGATION =   356967584.0000             SW IRRIGATION =           0.0000
        SYSTEM LOSSES GW =           0.0000          SYSTEM LOSSES GW =           0.0000
        SYSTEM LOSSES SW =           0.0000          SYSTEM LOSSES SW =           0.0000

               TOTAL OUT =   443963840.0000                 TOTAL OUT =           0.0000

                IN - OUT =       -7168.0000                  IN - OUT =           0.0000

     PERCENT DISCREPANCY =          -0.00         PERCENT DISCREPANCY =           0.00



1
  VOLUMETRIC BUDGET FOR ENTIRE MODEL AT END OF TIME STEP   30, STRESS PERIOD  13
  ------------------------------------------------------------------------------

     CUMULATIVE VOLUMES      L**3       RATES FOR THIS TIME STEP      L**3/T
     ------------------                 ------------------------

           IN:                                      IN:
           ---                                      ---
             STORAGE     =   145884224.0000               STORAGE     =           1.3953
       CONSTANT HEAD     =           0.0000         CONSTANT HEAD     =           0.0000
     HEAD DEP BOUNDS     =     9042672.0000       HEAD DEP BOUNDS     =           0.2858
      STREAM LEAKAGE     =   378933856.0000        STREAM LEAKAGE     =          11.2277
        UZF RECHARGE     =       73223.9531          UZF RECHARGE     =           0.0000
               GW ET     =           0.0000                 GW ET     =           0.0000
     SURFACE LEAKAGE     =           0.0000       SURFACE LEAKAGE     =           0.0000
           AG WELLS      =           0.0000             AG WELLS      =           0.0000

                TOTAL IN =   533933952.0000                  TOTAL IN =          12.9087

          OUT:                                     OUT:
          ----                                     ----
             STORAGE     =    93541640.0000               STORAGE     =           1.6675
       CONSTANT HEAD     =           0.0000         CONSTANT HEAD     =           0.0000
     HEAD DEP BOUNDS     =     9201657.0000       HEAD DEP BOUNDS     =           0.2894
      STREAM LEAKAGE     =   342662144.0000        STREAM LEAKAGE     =          10.9519
        UZF RECHARGE     =           0.0000          UZF RECHARGE     =           0.0000
               GW ET     =     1534490.7500                 GW ET     =           0.0000
     SURFACE LEAKAGE     =           0.0000       SURFACE LEAKAGE     =           0.0000
           AG WELLS      =    86996240.0000             AG WELLS      =           0.0000

               TOTAL OUT =   533936192.0000                 TOTAL OUT =          12.9088

                IN - OUT =       -2240.0000                  IN - OUT =      -7.3433E-05

     PERCENT DISCREPANCY =          -0.00         PERCENT DISCREPANCY =          -0.00






         TIME SUMMARY AT END OF TIME STEP   30 IN STRESS PERIOD   13
                    SECONDS     MINUTES      HOURS       DAYS        YEARS
                    -----------------------------------------------------------
   TIME STEP LENGTH  87667.      1461.1      24.352      1.0147     2.77799E-03
 STRESS PERIOD TIME 2.63000E+06  43833.      730.56      30.440     8.33397E-02
         TOTAL TIME 3.16463E+07 5.27439E+05  8790.6      366.28      1.0028    
1
1
                            STRESS PERIOD NO.   14, LENGTH =   2630000.    
                            -----------------------------------------------

                              NUMBER OF TIME STEPS =    30

                               MULTIPLIER FOR DELT =     1.000

                            INITIAL TIME STEP SIZE =   87666.66    

 REUSING NON-PARAMETER GHB CELLS FROM LAST STRESS PERIOD

      2 GHB CELLS

 REUSING STREAM SEGMENT DATA FROM LAST STRESS PERIOD



            AREAL INFILTRATION RATE
 READING ON UNIT   19 WITH FORMAT: (FREE)              

            1           2           3           4           5           6           7           8           9          10
 ........................................................................................................................
   1   1.0000E-10  2.0000E-10   0.000       0.000       0.000       0.000       0.000       0.000       0.000       0.000    
   2   2.0000E-10  1.0000E-10  2.0000E-10   0.000       0.000      8.0000E-10  8.0000E-10  5.0000E-10   0.000       0.000    
   3    0.000      5.0000E-10  1.0000E-10  1.0000E-10  8.0000E-10  8.0000E-10  5.0000E-10  5.0000E-10   0.000       0.000    
   4   8.0000E-10  5.0000E-10  1.0000E-10  1.0000E-10  1.0000E-10  1.0000E-10  1.0000E-10  1.0000E-10  2.0000E-10   0.000    
   5   8.0000E-10  5.0000E-10  1.0000E-10  1.0000E-10  1.0000E-10  1.0000E-10  1.0000E-10  1.0000E-10  1.0000E-10  1.0000E-10
   6   8.0000E-10  5.0000E-10  5.0000E-10  2.0000E-10  2.0000E-10  1.0000E-10  1.0000E-10  1.0000E-10  1.0000E-10  5.0000E-10
   7   8.0000E-10  5.0000E-10  5.0000E-10  2.0000E-10  2.0000E-10  1.0000E-10  1.0000E-10  2.0000E-10  2.0000E-10   0.000    
   8    0.000      5.0000E-10  5.0000E-10  2.0000E-10  2.0000E-10  1.0000E-10  1.0000E-10  2.0000E-10  5.0000E-10   0.000    
   9    0.000      5.0000E-10  5.0000E-10  2.0000E-10  2.0000E-10  1.0000E-10  1.0000E-10  2.0000E-10  5.0000E-10   0.000    
  10    0.000      5.0000E-10  5.0000E-10  2.0000E-10  2.0000E-10  1.0000E-10  1.0000E-10  2.0000E-10  5.0000E-10  8.0000E-10
  11    0.000      1.0000E-10  1.0000E-10  1.0000E-10  1.0000E-10  1.0000E-10  1.0000E-10  2.0000E-10  5.0000E-10   0.000    
  12   1.0000E-10  1.0000E-10  1.0000E-10  1.0000E-10  1.0000E-10  1.0000E-10  1.0000E-10  1.0000E-10  2.0000E-10   0.000    
  13   1.0000E-10  1.0000E-10  2.0000E-10  2.0000E-10  2.0000E-10  2.0000E-10  2.0000E-10  1.0000E-10  1.0000E-10   0.000    
  14    0.000      2.0000E-10  5.0000E-10  5.0000E-10  5.0000E-10  5.0000E-10  5.0000E-10  2.0000E-10  1.0000E-10   0.000    
  15    0.000       0.000      8.0000E-10  8.0000E-10  8.0000E-10  8.0000E-10   0.000       0.000       0.000       0.000    

                  ET RATE =  5.000000E-10

 USING ET EXTINCTION DEPTH FROM PREVIOUS STRESS PERIOD. CURRENT PERIOD IS:      14

 USING EXTINCTION WATER CONTENT FROM PREVIOUS STRESS PERIOD. CURRENT PERIOD IS:      14

 USING AIR ENTRY PRESSURE FROM PREVIOUS STRESS PERIOD. CURRENT PERIOD IS:      14

 USING ROOT PRESSURE HEAD FROM PREVIOUS STRESS PERIOD. CURRENT PERIOD IS:      14

 USING ROOT ACTIVITY FROM PREVIOUS STRESS PERIOD. CURRENT PERIOD IS:      14

 PROCESSING AG STRESS PERIOD DATA

 READING AG STRESS PERIOD DATA

 READING IRRIGATION SEGMENT

 READING IRRIGATION WELL

 READING SUPPLEMENTAL WELL

 END PROCESSING AG STRESS PERIOD DATA OPTIONS
 
 SOLVING FOR HEAD 
                                                   Max.-Head-Change                         Max.-Flux-Residual
  Residual-Control   Outer-Iter.   Inner-Iter.     Column Row Layer    Maximum-Head-Change  Column Row Layer    Maximum-Flux-Residual          L2-NORM 
          0                 1           2             4    7     1       0.3476861768E-02       4    7    1         0.1825850652E+00      0.4578197638E+00
          0                 2           2             4    7     1      -0.3382041169E-03       4    7    1        -0.1825852537E-01      0.4575875625E-01
          0                 3           1             4    7     1       0.2303044390E-04       4    7    1         0.1278097144E-02      0.3200950935E-02

    ------------------------------------------------
       NWT REQUIRED            3 OUTER ITERATIONS 
       AND A TOTAL OF          5 INNER ITERATIONS.
    ------------------------------------------------

 NO OUTPUT CONTROL FOR STRESS PERIOD   14   TIME STEP    1
 
 SOLVING FOR HEAD 
                                                   Max.-Head-Change                         Max.-Flux-Residual
  Residual-Control   Outer-Iter.   Inner-Iter.     Column Row Layer    Maximum-Head-Change  Column Row Layer    Maximum-Flux-Residual          L2-NORM 
          0                 1           2             4    7     1       0.3440315037E-02       4    7    1         0.1806570946E+00      0.4718943310E+00
          0                 2           2             4    7     1      -0.3346491098E-03       4    7    1        -0.1806572785E-01      0.4709917452E-01
          0                 3           1             4    7     1       0.2278836146E-04       4    7    1         0.1264601327E-02      0.3281839872E-02

    ------------------------------------------------
       NWT REQUIRED            3 OUTER ITERATIONS 
       AND A TOTAL OF          5 INNER ITERATIONS.
    ------------------------------------------------

 NO OUTPUT CONTROL FOR STRESS PERIOD   14   TIME STEP    2
 
 SOLVING FOR HEAD 
                                                   Max.-Head-Change                         Max.-Flux-Residual
  Residual-Control   Outer-Iter.   Inner-Iter.     Column Row Layer    Maximum-Head-Change  Column Row Layer    Maximum-Flux-Residual          L2-NORM 
          0                 1           2             4    7     1       0.3404394702E-02       4    7    1         0.1787621849E+00      0.4660871310E+00
          0                 2           2             4    7     1      -0.3311550339E-03       4    7    1        -0.1787623642E-01      0.4652962137E-01
          0                 3           1             4    7     1       0.2255042766E-04       4    7    1         0.1251336917E-02      0.3249838021E-02

    ------------------------------------------------
       NWT REQUIRED            3 OUTER ITERATIONS 
       AND A TOTAL OF          5 INNER ITERATIONS.
    ------------------------------------------------

 NO OUTPUT CONTROL FOR STRESS PERIOD   14   TIME STEP    3
 
 SOLVING FOR HEAD 
                                                   Max.-Head-Change                         Max.-Flux-Residual
  Residual-Control   Outer-Iter.   Inner-Iter.     Column Row Layer    Maximum-Head-Change  Column Row Layer    Maximum-Flux-Residual          L2-NORM 
          0                 1           2             4    7     1       0.3368819050E-02       4    7    1         0.1768849480E+00      0.4606190233E+00
          0                 2           2             4    7     1      -0.3276944865E-03       4    7    1        -0.1768851229E-01      0.4599199783E-01
          0                 3           1             4    7     1       0.2231477706E-04       4    7    1         0.1238196222E-02      0.3209522179E-02

    ------------------------------------------------
       NWT REQUIRED            3 OUTER ITERATIONS 
       AND A TOTAL OF          5 INNER ITERATIONS.
    ------------------------------------------------

 NO OUTPUT CONTROL FOR STRESS PERIOD   14   TIME STEP    4
 
 SOLVING FOR HEAD 
                                                   Max.-Head-Change                         Max.-Flux-Residual
  Residual-Control   Outer-Iter.   Inner-Iter.     Column Row Layer    Maximum-Head-Change  Column Row Layer    Maximum-Flux-Residual          L2-NORM 
          0                 1           2             4    7     1       0.3333853572E-02       4    7    1         0.1750403878E+00      0.4554313508E+00
          0                 2           2             4    7     1      -0.3242932926E-03       4    7    1        -0.1750405584E-01      0.4548160392E-01
          0                 3           1             4    7     1       0.2208316859E-04       4    7    1         0.1225284275E-02      0.3178196825E-02

    ------------------------------------------------
       NWT REQUIRED            3 OUTER ITERATIONS 
       AND A TOTAL OF          5 INNER ITERATIONS.
    ------------------------------------------------

 NO OUTPUT CONTROL FOR STRESS PERIOD   14   TIME STEP    5
 
 SOLVING FOR HEAD 
                                                   Max.-Head-Change                         Max.-Flux-Residual
  Residual-Control   Outer-Iter.   Inner-Iter.     Column Row Layer    Maximum-Head-Change  Column Row Layer    Maximum-Flux-Residual          L2-NORM 
          0                 1           2             4    7     1       0.3299488575E-02       4    7    1         0.1732274643E+00      0.4505018740E+00
          0                 2           2             4    7     1      -0.3209505097E-03       4    7    1        -0.1732276309E-01      0.4499580976E-01
          0                 3           1             4    7     1       0.2185553766E-04       4    7    1         0.1212593784E-02      0.3144327156E-02

    ------------------------------------------------
       NWT REQUIRED            3 OUTER ITERATIONS 
       AND A TOTAL OF          5 INNER ITERATIONS.
    ------------------------------------------------

 NO OUTPUT CONTROL FOR STRESS PERIOD   14   TIME STEP    6
 
 SOLVING FOR HEAD 
                                                   Max.-Head-Change                         Max.-Flux-Residual
  Residual-Control   Outer-Iter.   Inner-Iter.     Column Row Layer    Maximum-Head-Change  Column Row Layer    Maximum-Flux-Residual          L2-NORM 
          0                 1           2             4    7     1       0.3265704649E-02       4    7    1         0.1714456752E+00      0.4457867944E+00
          0                 2           2             4    7     1      -0.3176642488E-03       4    7    1        -0.1714458377E-01      0.4453076166E-01
          0                 3           1             4    7     1       0.2163175551E-04       4    7    1         0.1200121220E-02      0.3112769080E-02

    ------------------------------------------------
       NWT REQUIRED            3 OUTER ITERATIONS 
       AND A TOTAL OF          5 INNER ITERATIONS.
    ------------------------------------------------

 NO OUTPUT CONTROL FOR STRESS PERIOD   14   TIME STEP    7
 
 SOLVING FOR HEAD 
                                                   Max.-Head-Change                         Max.-Flux-Residual
  Residual-Control   Outer-Iter.   Inner-Iter.     Column Row Layer    Maximum-Head-Change  Column Row Layer    Maximum-Flux-Residual          L2-NORM 
          0                 1           2             4    7     1       0.3232223046E-02       4    7    1         0.1696792083E+00      0.4412856329E+00
          0                 2           2             4    7     1      -0.3144073961E-03       4    7    1        -0.1696793668E-01      0.4408641921E-01
          0                 3           1             4    7     1       0.2140997632E-04       4    7    1         0.1187755928E-02      0.3082296328E-02

    ------------------------------------------------
       NWT REQUIRED            3 OUTER ITERATIONS 
       AND A TOTAL OF          5 INNER ITERATIONS.
    ------------------------------------------------

 NO OUTPUT CONTROL FOR STRESS PERIOD   14   TIME STEP    8
 
 SOLVING FOR HEAD 
                                                   Max.-Head-Change                         Max.-Flux-Residual
  Residual-Control   Outer-Iter.   Inner-Iter.     Column Row Layer    Maximum-Head-Change  Column Row Layer    Maximum-Flux-Residual          L2-NORM 
          0                 1           2             4    7     1       0.3199306572E-02       4    7    1         0.1679432221E+00      0.4369408102E+00
          0                 2           2             4    7     1      -0.3112055152E-03       4    7    1        -0.1679433768E-01      0.4365652420E-01
          0                 3           1             4    7     1       0.2119193989E-04       4    7    1         0.1175604001E-02      0.3052438991E-02

    ------------------------------------------------
       NWT REQUIRED            3 OUTER ITERATIONS 
       AND A TOTAL OF          5 INNER ITERATIONS.
    ------------------------------------------------

 NO OUTPUT CONTROL FOR STRESS PERIOD   14   TIME STEP    9
 
 SOLVING FOR HEAD 
                                                   Max.-Head-Change                         Max.-Flux-Residual
  Residual-Control   Outer-Iter.   Inner-Iter.     Column Row Layer    Maximum-Head-Change  Column Row Layer    Maximum-Flux-Residual          L2-NORM 
          0                 1           2             4    7     1       0.3166946642E-02       4    7    1         0.1662365372E+00      0.4327646822E+00
          0                 2           2             4    7     1      -0.3080577707E-03       4    7    1        -0.1662366881E-01      0.4324316965E-01
          0                 3           1             4    7     1       0.2097759011E-04       4    7    1         0.1163657177E-02      0.3023791416E-02

    ------------------------------------------------
       NWT REQUIRED            3 OUTER ITERATIONS 
       AND A TOTAL OF          5 INNER ITERATIONS.
    ------------------------------------------------

 NO OUTPUT CONTROL FOR STRESS PERIOD   14   TIME STEP   10
 
 SOLVING FOR HEAD 
                                                   Max.-Head-Change                         Max.-Flux-Residual
  Residual-Control   Outer-Iter.   Inner-Iter.     Column Row Layer    Maximum-Head-Change  Column Row Layer    Maximum-Flux-Residual          L2-NORM 
          0                 1           2             4    7     1       0.3135128527E-02       4    7    1         0.1645587085E+00      0.4287300691E+00
          0                 2           2             4    7     1      -0.3049627310E-03       4    7    1        -0.1645588560E-01      0.4284340816E-01
          0                 3           1             4    7     1       0.2076682949E-04       4    7    1         0.1151912365E-02      0.2996479005E-02

    ------------------------------------------------
       NWT REQUIRED            3 OUTER ITERATIONS 
       AND A TOTAL OF          5 INNER ITERATIONS.
    ------------------------------------------------

 NO OUTPUT CONTROL FOR STRESS PERIOD   14   TIME STEP   11
 
 SOLVING FOR HEAD 
                                                   Max.-Head-Change                         Max.-Flux-Residual
  Residual-Control   Outer-Iter.   Inner-Iter.     Column Row Layer    Maximum-Head-Change  Column Row Layer    Maximum-Flux-Residual          L2-NORM 
          0                 1           2             4    7     1       0.3103568868E-02       4    7    1         0.1628941663E+00      0.4248184913E+00
          0                 2           2             4    7     1      -0.3018928312E-03       4    7    1        -0.1628943101E-01      0.4245573875E-01
          0                 3           1             4    7     1       0.2055778072E-04       4    7    1         0.1140260525E-02      0.2969517129E-02

    ------------------------------------------------
       NWT REQUIRED            3 OUTER ITERATIONS 
       AND A TOTAL OF          5 INNER ITERATIONS.
    ------------------------------------------------

 NO OUTPUT CONTROL FOR STRESS PERIOD   14   TIME STEP   12
 
 SOLVING FOR HEAD 
                                                   Max.-Head-Change                         Max.-Flux-Residual
  Residual-Control   Outer-Iter.   Inner-Iter.     Column Row Layer    Maximum-Head-Change  Column Row Layer    Maximum-Flux-Residual          L2-NORM 
          0                 1           2             4    7     1       0.3072543917E-02       4    7    1         0.1612578307E+00      0.4210199133E+00
          0                 2           2             4    7     1      -0.2988749448E-03       4    7    1        -0.1612579713E-01      0.4207870598E-01
          0                 3           1             4    7     1       0.2035227400E-04       4    7    1         0.1128806157E-02      0.2943420989E-02

    ------------------------------------------------
       NWT REQUIRED            3 OUTER ITERATIONS 
       AND A TOTAL OF          5 INNER ITERATIONS.
    ------------------------------------------------

 NO OUTPUT CONTROL FOR STRESS PERIOD   14   TIME STEP   13
 
 SOLVING FOR HEAD 
                                                   Max.-Head-Change                         Max.-Flux-Residual
  Residual-Control   Outer-Iter.   Inner-Iter.     Column Row Layer    Maximum-Head-Change  Column Row Layer    Maximum-Flux-Residual          L2-NORM 
          0                 1           2             4    7     1       0.3042034517E-02       4    7    1         0.1596492192E+00      0.4173263201E+00
          0                 2           2             4    7     1      -0.2959083466E-03       4    7    1        -0.1596493565E-01      0.4171353052E-01
          0                 3           1             4    7     1       0.2015025940E-04       4    7    1         0.1117545852E-02      0.2918020578E-02

    ------------------------------------------------
       NWT REQUIRED            3 OUTER ITERATIONS 
       AND A TOTAL OF          5 INNER ITERATIONS.
    ------------------------------------------------

 NO OUTPUT CONTROL FOR STRESS PERIOD   14   TIME STEP   14
 
 SOLVING FOR HEAD 
                                                   Max.-Head-Change                         Max.-Flux-Residual
  Residual-Control   Outer-Iter.   Inner-Iter.     Column Row Layer    Maximum-Head-Change  Column Row Layer    Maximum-Flux-Residual          L2-NORM 
          0                 1           2             4    7     1       0.3012022563E-02       4    7    1         0.1580672778E+00      0.4137405701E+00
          0                 2           2             4    7     1      -0.2929878579E-03       4    7    1        -0.1580674119E-01      0.4135541935E-01
          0                 3           1             4    7     1       0.1995138498E-04       4    7    1         0.1106472227E-02      0.2893204203E-02

    ------------------------------------------------
       NWT REQUIRED            3 OUTER ITERATIONS 
       AND A TOTAL OF          5 INNER ITERATIONS.
    ------------------------------------------------

 NO OUTPUT CONTROL FOR STRESS PERIOD   14   TIME STEP   15
 
 SOLVING FOR HEAD 
                                                   Max.-Head-Change                         Max.-Flux-Residual
  Residual-Control   Outer-Iter.   Inner-Iter.     Column Row Layer    Maximum-Head-Change  Column Row Layer    Maximum-Flux-Residual          L2-NORM 
          0                 1           2             4    7     1       0.2982225178E-02       4    7    1         0.1564964431E+00      0.4102225014E+00
          0                 2           2             4    7     1      -0.2900893804E-03       4    7    1        -0.1564965740E-01      0.4100561258E-01
          0                 3           1             4    7     1       0.1975400965E-04       4    7    1         0.1095476375E-02      0.2868975619E-02

    ------------------------------------------------
       NWT REQUIRED            3 OUTER ITERATIONS 
       AND A TOTAL OF          5 INNER ITERATIONS.
    ------------------------------------------------

 NO OUTPUT CONTROL FOR STRESS PERIOD   14   TIME STEP   16
 
 SOLVING FOR HEAD 
                                                   Max.-Head-Change                         Max.-Flux-Residual
  Residual-Control   Outer-Iter.   Inner-Iter.     Column Row Layer    Maximum-Head-Change  Column Row Layer    Maximum-Flux-Residual          L2-NORM 
          0                 1           2             4    7     1       0.2952919082E-02       4    7    1         0.1549514793E+00      0.4067843336E+00
          0                 2           2             4    7     1      -0.2872386918E-03       4    7    1        -0.1549516073E-01      0.4066336809E-01
          0                 3           1             4    7     1       0.1955988834E-04       4    7    1         0.1084661594E-02      0.2845000054E-02

    ------------------------------------------------
       NWT REQUIRED            3 OUTER ITERATIONS 
       AND A TOTAL OF          5 INNER ITERATIONS.
    ------------------------------------------------

 NO OUTPUT CONTROL FOR STRESS PERIOD   14   TIME STEP   17
 
 SOLVING FOR HEAD 
                                                   Max.-Head-Change                         Max.-Flux-Residual
  Residual-Control   Outer-Iter.   Inner-Iter.     Column Row Layer    Maximum-Head-Change  Column Row Layer    Maximum-Flux-Residual          L2-NORM 
          0                 1           2             4    7     1       0.2924090134E-02       4    7    1         0.1534319883E+00      0.4034244411E+00
          0                 2           2             4    7     1      -0.2844344168E-03       4    7    1        -0.1534321133E-01      0.4032889555E-01
          0                 3           1             4    7     1       0.1936892780E-04       4    7    1         0.1074025131E-02      0.2821822045E-02

    ------------------------------------------------
       NWT REQUIRED            3 OUTER ITERATIONS 
       AND A TOTAL OF          5 INNER ITERATIONS.
    ------------------------------------------------

 NO OUTPUT CONTROL FOR STRESS PERIOD   14   TIME STEP   18
 
 SOLVING FOR HEAD 
                                                   Max.-Head-Change                         Max.-Flux-Residual
  Residual-Control   Outer-Iter.   Inner-Iter.     Column Row Layer    Maximum-Head-Change  Column Row Layer    Maximum-Flux-Residual          L2-NORM 
          0                 1           2             4    7     1       0.2895725092E-02       4    7    1         0.1519372370E+00      0.4001329877E+00
          0                 2           2             4    7     1      -0.2816752679E-03       4    7    1        -0.1519373593E-01      0.4000099130E-01
          0                 3           1             4    7     1       0.1918103975E-04       4    7    1         0.1063561855E-02      0.2799058996E-02

    ------------------------------------------------
       NWT REQUIRED            3 OUTER ITERATIONS 
       AND A TOTAL OF          5 INNER ITERATIONS.
    ------------------------------------------------

 NO OUTPUT CONTROL FOR STRESS PERIOD   14   TIME STEP   19
 
 SOLVING FOR HEAD 
                                                   Max.-Head-Change                         Max.-Flux-Residual
  Residual-Control   Outer-Iter.   Inner-Iter.     Column Row Layer    Maximum-Head-Change  Column Row Layer    Maximum-Flux-Residual          L2-NORM 
          0                 1           2             4    7     1       0.2867821775E-02       4    7    1         0.1504665386E+00      0.3969211066E+00
          0                 2           2             4    7     1      -0.2789610316E-03       4    7    1        -0.1504666580E-01      0.3968095246E-01
          0                 3           1             4    7     1       0.1899621023E-04       4    7    1         0.1053266943E-02      0.2776007167E-02

    ------------------------------------------------
       NWT REQUIRED            3 OUTER ITERATIONS 
       AND A TOTAL OF          5 INNER ITERATIONS.
    ------------------------------------------------

 NO OUTPUT CONTROL FOR STRESS PERIOD   14   TIME STEP   20
 
 SOLVING FOR HEAD 
                                                   Max.-Head-Change                         Max.-Flux-Residual
  Residual-Control   Outer-Iter.   Inner-Iter.     Column Row Layer    Maximum-Head-Change  Column Row Layer    Maximum-Flux-Residual          L2-NORM 
          0                 1           2             4    7     1       0.2840094727E-02       4    7    1         0.1490049734E+00      0.3937609555E+00
          0                 2           2             4    7     1      -0.2762639419E-03       4    7    1        -0.1490050900E-01      0.3936615487E-01
          0                 3           1             4    7     1       0.1881254894E-04       4    7    1         0.1043035975E-02      0.2754695645E-02

    ------------------------------------------------
       NWT REQUIRED            3 OUTER ITERATIONS 
       AND A TOTAL OF          5 INNER ITERATIONS.
    ------------------------------------------------

 NO OUTPUT CONTROL FOR STRESS PERIOD   14   TIME STEP   21
 
 SOLVING FOR HEAD 
                                                   Max.-Head-Change                         Max.-Flux-Residual
  Residual-Control   Outer-Iter.   Inner-Iter.     Column Row Layer    Maximum-Head-Change  Column Row Layer    Maximum-Flux-Residual          L2-NORM 
          0                 1           2             4    7     1       0.2812818449E-02       4    7    1         0.1475673544E+00      0.3906587094E+00
          0                 2           2             4    7     1      -0.2736107000E-03       4    7    1        -0.1475674685E-01      0.3905686446E-01
          0                 3           1             4    7     1       0.1863187280E-04       4    7    1         0.1032972605E-02      0.2733207889E-02

    ------------------------------------------------
       NWT REQUIRED            3 OUTER ITERATIONS 
       AND A TOTAL OF          5 INNER ITERATIONS.
    ------------------------------------------------

 NO OUTPUT CONTROL FOR STRESS PERIOD   14   TIME STEP   22
 
 SOLVING FOR HEAD 
                                                   Max.-Head-Change                         Max.-Flux-Residual
  Residual-Control   Outer-Iter.   Inner-Iter.     Column Row Layer    Maximum-Head-Change  Column Row Layer    Maximum-Flux-Residual          L2-NORM 
          0                 1           2             4    7     1       0.2785979537E-02       4    7    1         0.1461531073E+00      0.3876097382E+00
          0                 2           2             4    7     1      -0.2710000020E-03       4    7    1        -0.1461532187E-01      0.3875269574E-01
          0                 3           1             4    7     1       0.1845409425E-04       4    7    1         0.1023072871E-02      0.2712026766E-02

    ------------------------------------------------
       NWT REQUIRED            3 OUTER ITERATIONS 
       AND A TOTAL OF          5 INNER ITERATIONS.
    ------------------------------------------------

 NO OUTPUT CONTROL FOR STRESS PERIOD   14   TIME STEP   23
 
 SOLVING FOR HEAD 
                                                   Max.-Head-Change                         Max.-Flux-Residual
  Residual-Control   Outer-Iter.   Inner-Iter.     Column Row Layer    Maximum-Head-Change  Column Row Layer    Maximum-Flux-Residual          L2-NORM 
          0                 1           2             4    7     1       0.2759571247E-02       4    7    1         0.1447615371E+00      0.3846174452E+00
          0                 2           2             4    7     1      -0.2684311919E-03       4    7    1        -0.1447616460E-01      0.3845427152E-01
          0                 3           1             4    7     1       0.1827916785E-04       4    7    1         0.1013331866E-02      0.2691126801E-02

    ------------------------------------------------
       NWT REQUIRED            3 OUTER ITERATIONS 
       AND A TOTAL OF          5 INNER ITERATIONS.
    ------------------------------------------------

 NO OUTPUT CONTROL FOR STRESS PERIOD   14   TIME STEP   24
 
 SOLVING FOR HEAD 
                                                   Max.-Head-Change                         Max.-Flux-Residual
  Residual-Control   Outer-Iter.   Inner-Iter.     Column Row Layer    Maximum-Head-Change  Column Row Layer    Maximum-Flux-Residual          L2-NORM 
          0                 1           2             4    7     1       0.2733313469E-02       4    7    1         0.1433774870E+00      0.3816749763E+00
          0                 2           2             4    7     1      -0.2658770223E-03       4    7    1        -0.1433775935E-01      0.3816067678E-01
          0                 3           1             4    7     1       0.1810523832E-04       4    7    1         0.1003643477E-02      0.2670650679E-02

    ------------------------------------------------
       NWT REQUIRED            3 OUTER ITERATIONS 
       AND A TOTAL OF          5 INNER ITERATIONS.
    ------------------------------------------------

 NO OUTPUT CONTROL FOR STRESS PERIOD   14   TIME STEP   25
 
 SOLVING FOR HEAD 
                                                   Max.-Head-Change                         Max.-Flux-Residual
  Residual-Control   Outer-Iter.   Inner-Iter.     Column Row Layer    Maximum-Head-Change  Column Row Layer    Maximum-Flux-Residual          L2-NORM 
          0                 1           2             4    7     1       0.2707750858E-02       4    7    1         0.1420308554E+00      0.3787836007E+00
          0                 2           2             4    7     1      -0.2633904741E-03       4    7    1        -0.1420309595E-01      0.3787201687E-01
          0                 3           1             4    7     1       0.1793591398E-04       4    7    1         0.9942170598E-03      0.2650429802E-02

    ------------------------------------------------
       NWT REQUIRED            3 OUTER ITERATIONS 
       AND A TOTAL OF          5 INNER ITERATIONS.
    ------------------------------------------------

 NO OUTPUT CONTROL FOR STRESS PERIOD   14   TIME STEP   26
 
 SOLVING FOR HEAD 
                                                   Max.-Head-Change                         Max.-Flux-Residual
  Residual-Control   Outer-Iter.   Inner-Iter.     Column Row Layer    Maximum-Head-Change  Column Row Layer    Maximum-Flux-Residual          L2-NORM 
          0                 1           2             4    7     1       0.2682320910E-02       4    7    1         0.1406906526E+00      0.3759431547E+00
          0                 2           2             4    7     1      -0.2609168300E-03       4    7    1        -0.1406907544E-01      0.3758854597E-01
          0                 3           1             4    7     1       0.1776746769E-04       4    7    1         0.9848356153E-03      0.2630678461E-02

    ------------------------------------------------
       NWT REQUIRED            3 OUTER ITERATIONS 
       AND A TOTAL OF          5 INNER ITERATIONS.
    ------------------------------------------------

 NO OUTPUT CONTROL FOR STRESS PERIOD   14   TIME STEP   27
 
 SOLVING FOR HEAD 
                                                   Max.-Head-Change                         Max.-Flux-Residual
  Residual-Control   Outer-Iter.   Inner-Iter.     Column Row Layer    Maximum-Head-Change  Column Row Layer    Maximum-Flux-Residual          L2-NORM 
          0                 1           2             4    7     1       0.2657298468E-02       4    7    1         0.1393721357E+00      0.3731368497E+00
          0                 2           2             4    7     1      -0.2584828251E-03       4    7    1        -0.1393722352E-01      0.3730840657E-01
          0                 3           1             4    7     1       0.1760172090E-04       4    7    1         0.9756059662E-03      0.2611091309E-02

    ------------------------------------------------
       NWT REQUIRED            3 OUTER ITERATIONS 
       AND A TOTAL OF          5 INNER ITERATIONS.
    ------------------------------------------------

 NO OUTPUT CONTROL FOR STRESS PERIOD   14   TIME STEP   28
 
 SOLVING FOR HEAD 
                                                   Max.-Head-Change                         Max.-Flux-Residual
  Residual-Control   Outer-Iter.   Inner-Iter.     Column Row Layer    Maximum-Head-Change  Column Row Layer    Maximum-Flux-Residual          L2-NORM 
          0                 1           2             4    7     1       0.2632673706E-02       4    7    1         0.1380747476E+00      0.3703844201E+00
          0                 2           2             4    7     1      -0.2560875045E-03       4    7    1        -0.1380748452E-01      0.3703352217E-01
          0                 3           1             4    7     1       0.1743860829E-04       4    7    1         0.9665242328E-03      0.2591883656E-02

    ------------------------------------------------
       NWT REQUIRED            3 OUTER ITERATIONS 
       AND A TOTAL OF          5 INNER ITERATIONS.
    ------------------------------------------------

 NO OUTPUT CONTROL FOR STRESS PERIOD   14   TIME STEP   29
 
 SOLVING FOR HEAD 
                                                   Max.-Head-Change                         Max.-Flux-Residual
  Residual-Control   Outer-Iter.   Inner-Iter.     Column Row Layer    Maximum-Head-Change  Column Row Layer    Maximum-Flux-Residual          L2-NORM 
          0                 1           2             4    7     1       0.2608160624E-02       4    7    1         0.1367831711E+00      0.3676552331E+00
          0                 2           2             4    7     1      -0.2537030469E-03       4    7    1        -0.1367832663E-01      0.3676104735E-01
          0                 3           1             4    7     1       0.1727623599E-04       4    7    1         0.9574831952E-03      0.2572889231E-02

    ------------------------------------------------
       NWT REQUIRED            3 OUTER ITERATIONS 
       AND A TOTAL OF          5 INNER ITERATIONS.
    ------------------------------------------------

 NO OUTPUT CONTROL FOR STRESS PERIOD   14   TIME STEP   30



 STREAM LISTING     PERIOD     14   STEP       30

 LAYER ROW COL. STREAM  RCH.  FLOW INTO     FLOW TO   FLOW OUT OF   OVRLND.     DIRECT     STREAM       STREAM     STREAM     STREAM   STREAMBED  STREAMBED
                SEG.NO.  NO.  STRM. RCH.    AQUIFER    STRM. RCH.    RUNOFF     PRECIP       ET          HEAD       DEPTH      WIDTH   CONDCTNC.   GRADIENT

   1    1    1     1     1    1.4250E+01  1.8169E-01   1.4069E+01  0.000E+00  0.000E+00  0.000E+00  1.09404E+03  9.953E-01  1.011E+01  4.548E-02  1.332E+00
   1    2    2     1     2    1.4069E+01  2.7999E-01   1.3789E+01  0.000E+00  0.000E+00  0.000E+00  1.08905E+03  9.906E-01  1.002E+01  7.016E-02  1.330E+00
   1    3    3     1     3    1.3789E+01  2.3745E-01   1.3551E+01  0.000E+00  0.000E+00  0.000E+00  1.08340E+03  9.853E-01  9.930E+00  5.958E-02  1.328E+00
   1    3    4     1     4    1.3551E+01  2.1755E-01   1.3334E+01  0.000E+00  0.000E+00  0.000E+00  1.07839E+03  9.805E-01  9.848E+00  5.465E-02  1.327E+00
   1    4    5     2     1    1.1334E+01  2.9214E-01   1.1041E+01  0.000E+00  0.000E+00  0.000E+00  1.07268E+03  7.454E-01  1.200E+01  7.800E-02  1.248E+00
   1    5    6     2     2    1.1041E+01  2.2410E-01   1.0817E+01  0.000E+00  0.000E+00  0.000E+00  1.06724E+03  7.350E-01  1.200E+01  6.000E-02  1.245E+00
   1    6    6     2     3    1.0817E+01  2.2356E-01   1.0594E+01  0.000E+00  0.000E+00  0.000E+00  1.06252E+03  7.260E-01  1.200E+01  6.000E-02  1.242E+00
   1    7    6     2     4    1.0594E+01  2.2301E-01   1.0371E+01  0.000E+00  0.000E+00  0.000E+00  1.05779E+03  7.168E-01  1.200E+01  6.000E-02  1.239E+00
   1    8    6     2     5    1.0371E+01  2.2246E-01   1.0148E+01  0.000E+00  0.000E+00  0.000E+00  1.05307E+03  7.077E-01  1.200E+01  6.000E-02  1.236E+00
   1    3    5     3     1    2.0000E+00  2.8252E-01   1.7175E+00  0.000E+00  0.000E+00  0.000E+00  1.07555E+03  1.909E+00  9.636E+00  7.227E-02  1.955E+00
   1    3    6     3     2    1.7175E+00  2.4905E-01   1.4684E+00  0.000E+00  0.000E+00  0.000E+00  1.07264E+03  1.727E+00  8.909E+00  6.682E-02  1.864E+00
   1    3    7     3     3    1.4684E+00  1.9718E-01   1.2712E+00  0.000E+00  0.000E+00  0.000E+00  1.06987E+03  1.555E+00  8.218E+00  5.547E-02  1.777E+00
   1    4    8     3     4    1.2712E+00  2.2567E-01   1.0456E+00  0.000E+00  0.000E+00  0.000E+00  1.06682E+03  1.364E+00  7.455E+00  6.709E-02  1.682E+00
   1    5    8     3     5    1.0456E+00  1.5790E-01   8.8768E-01  0.000E+00  0.000E+00  0.000E+00  1.06362E+03  1.164E+00  6.655E+00  4.991E-02  1.582E+00
   1    6    8     3     6    8.8768E-01  5.5980E-02   8.3170E-01  0.000E+00  0.000E+00  0.000E+00  1.06158E+03  1.036E+00  6.145E+00  1.844E-02  1.518E+00
   1    5   10     4     1    1.0000E+01  9.0919E-02   9.9091E+00  0.000E+00  0.000E+00  0.000E+00  1.07836E+03  6.368E-01  1.000E+01  2.500E-02  1.212E+00
   1    5    9     4     2    9.9091E+00  1.8158E-01   9.7275E+00  0.000E+00  0.000E+00  0.000E+00  1.07154E+03  6.315E-01  1.000E+01  5.000E-02  1.211E+00
   1    6    8     4     3    9.7275E+00  1.2689E-01   9.6006E+00  0.000E+00  0.000E+00  0.000E+00  1.06381E+03  6.256E-01  1.000E+01  3.500E-02  1.209E+00
   1    6    8     5     1    1.0432E+01  2.2686E-01   1.0205E+01  0.000E+00  0.000E+00  0.000E+00  1.05868E+03  6.790E-01  1.542E+01  6.166E-02  1.226E+00
   1    7    7     5     2    1.0205E+01  2.7894E-01   9.9265E+00  0.000E+00  0.000E+00  0.000E+00  1.05417E+03  6.732E-01  1.519E+01  7.594E-02  1.224E+00
   1    8    7     5     3    9.9265E+00  1.9221E-01   9.7343E+00  0.000E+00  0.000E+00  0.000E+00  1.04992E+03  6.676E-01  1.497E+01  5.241E-02  1.223E+00
   1    8    6     5     4    9.7343E+00  1.3577E-01   9.5985E+00  0.000E+00  0.000E+00  0.000E+00  1.04691E+03  6.637E-01  1.482E+01  3.706E-02  1.221E+00
   1    9    6     6     1    1.9747E+01  2.4336E-01   1.9503E+01  0.000E+00  0.000E+00  0.000E+00  1.04378E+03  1.056E+00  1.200E+01  6.000E-02  1.352E+00
   1   10    7     6     2    1.9503E+01  2.4289E-01   1.9261E+01  0.000E+00  0.000E+00  0.000E+00  1.03923E+03  1.048E+00  1.200E+01  6.000E-02  1.349E+00
   1   11    7     6     3    1.9261E+01  2.4241E-01   1.9018E+01  0.000E+00  0.000E+00  0.000E+00  1.03468E+03  1.040E+00  1.200E+01  6.000E-02  1.347E+00
   1   12    7     6     4    1.9018E+01  2.4194E-01   1.8776E+01  0.000E+00  0.000E+00  0.000E+00  1.03012E+03  1.032E+00  1.200E+01  6.000E-02  1.344E+00
   1   13    7     6     5    1.8776E+01 -3.9663E-02   1.8816E+01  0.000E+00  0.000E+00  0.000E+00  1.02694E+03  1.029E+00  1.200E+01  2.400E-01 -5.509E-02
   1   14    9     7     1    1.5000E+02  1.3362E+00   1.4866E+02  0.000E+00  0.000E+00  0.000E+00  1.03987E+03  2.288E+00  5.529E+01  5.593E-01  7.963E-01
   1   13    8     7     2    1.4866E+02  1.8250E+00   1.4684E+02  0.000E+00  0.000E+00  0.000E+00  1.03478E+03  2.279E+00  5.526E+01  6.148E-01  9.895E-01
   1   13    7     7     3    1.4684E+02  1.4445E+00   1.4539E+02  0.000E+00  0.000E+00  0.000E+00  1.02969E+03  2.271E+00  5.522E+01  5.585E-01  8.622E-01
   1   13    6     8     1    1.6421E+02  8.6044E-01   1.6335E+02  0.000E+00  0.000E+00  0.000E+00  1.02479E+03  2.911E+00  4.221E+01  4.302E-01  6.668E-01
   1   13    5     8     2    1.6335E+02  1.2163E-01   1.6323E+02  0.000E+00  0.000E+00  0.000E+00  1.01853E+03  2.908E+00  4.217E+01  4.297E-01  9.436E-02
   1   13    4     8     3    1.6323E+02 -2.6178E+00   1.6585E+02  0.000E+00  0.000E+00  0.000E+00  1.01229E+03  2.916E+00  4.229E+01  4.309E+00 -2.025E-01
   1   13    3     8     4    1.6585E+02 -3.7323E+00   1.6958E+02  0.000E+00  0.000E+00  0.000E+00  1.00606E+03  2.937E+00  4.259E+01  4.340E+00 -2.867E-01
   1   13    2     8     5    1.6958E+02 -2.6005E+00   1.7218E+02  0.000E+00  0.000E+00  0.000E+00  9.99833E+02  2.958E+00  4.289E+01  4.371E+00 -1.983E-01
   1   13    1     8     6    1.7218E+02 -1.9917E+00   1.7417E+02  0.000E+00  0.000E+00  0.000E+00  9.94848E+02  2.973E+00  4.310E+01  2.636E+00 -2.519E-01
   1    8    6     9     1    0.0000E+00  0.0000E+00   0.0000E+00  0.000E+00  0.000E+00  0.000E+00  1.07875E+03  0.000E+00  4.000E+00  0.000E+00  1.000E+00
   1    8    5     9     2    0.0000E+00  0.0000E+00   0.0000E+00  0.000E+00  0.000E+00  0.000E+00  1.07825E+03  0.000E+00  4.000E+00  0.000E+00  1.000E+00





UNSATURATED ZONE PACKAGE VOLUMETRIC BUDGET FOR  TIME STEP    30 STRESS PERIOD   14
  ------------------------------------------------------------------------------



     CUMULATIVE VOLUMES      L**3       RATES FOR THIS TIME STEP      L**3/T
     ------------------                 ------------------------

           IN:                                      IN:
           ---                                      ---
        INFILTRATION =   473009541.8007          INFILTRATION =           0.8475

          OUT:                                     OUT:
          ----                                     ----
              UZF ET =   432010148.2618                UZF ET =           0.7500
        UZF RECHARGE =       73224.0000          UZF RECHARGE =       0.0000E+00

            IN - OUT =    40926169.5389              IN - OUT =       9.7500E-02

          STORAGE:                                 STORAGE:
          --------                                 --------
      STORAGE CHANGE =    40941769.6692        STORAGE CHANGE =       9.7500E-02

 PERCENT DISCREPANCY IS DIFFERENCE BETWEEN IN-OUT MINUS CHANGE IN STORAGE
 DIVIDED BY THE AVERAGE OF IN AND OUT TIMES 100

 PERCENT DISCREPANCY =          -0.00     PERCENT DISCREPANCY =           0.00






1
  VOLUMETRIC BUDGET FOR AGRICULTURAL FIELDS AT  END OF TIME STEP   30, STRESS PERIOD  14
  ------------------------------------------------------------------------------

     CUMULATIVE VOLUMES      L**3       RATES FOR THIS TIME STEP      L**3/T
     ------------------                 ------------------------

           IN:                                      IN:
           ---                                      ---
           AG WELLS      =    86996240.0000             AG WELLS      =           0.0000
      DIVERSION SEGMENTS =   356960448.0000        DIVERSION SEGMENTS =           0.0000
           GW IRRIGATION =           0.0000             GW IRRIGATION =           0.0000
           SW IRRIGATION =           0.0000             SW IRRIGATION =           0.0000
        SYSTEM LOSSES GW =           0.0000          SYSTEM LOSSES GW =           0.0000
        SYSTEM LOSSES SW =           0.0000          SYSTEM LOSSES SW =           0.0000

                TOTAL IN =   443956672.0000                  TOTAL IN =           0.0000

          OUT:                                     OUT:
          ----                                     ----
           AG WELLS      =           0.0000             AG WELLS      =           0.0000
      DIVERSION SEGMENTS =           0.0000        DIVERSION SEGMENTS =           0.0000
           GW IRRIGATION =    86996240.0000             GW IRRIGATION =           0.0000
           SW IRRIGATION =   356967584.0000             SW IRRIGATION =           0.0000
        SYSTEM LOSSES GW =           0.0000          SYSTEM LOSSES GW =           0.0000
        SYSTEM LOSSES SW =           0.0000          SYSTEM LOSSES SW =           0.0000

               TOTAL OUT =   443963840.0000                 TOTAL OUT =           0.0000

                IN - OUT =       -7168.0000                  IN - OUT =           0.0000

     PERCENT DISCREPANCY =          -0.00         PERCENT DISCREPANCY =           0.00



1
  VOLUMETRIC BUDGET FOR ENTIRE MODEL AT END OF TIME STEP   30, STRESS PERIOD  14
  ------------------------------------------------------------------------------

     CUMULATIVE VOLUMES      L**3       RATES FOR THIS TIME STEP      L**3/T
     ------------------                 ------------------------

           IN:                                      IN:
           ---                                      ---
             STORAGE     =   149766032.0000               STORAGE     =           1.2924
       CONSTANT HEAD     =           0.0000         CONSTANT HEAD     =           0.0000
     HEAD DEP BOUNDS     =     9794265.0000       HEAD DEP BOUNDS     =           0.2858
      STREAM LEAKAGE     =   408011552.0000        STREAM LEAKAGE     =          11.0617
        UZF RECHARGE     =       73223.9531          UZF RECHARGE     =           0.0000
               GW ET     =           0.0000                 GW ET     =           0.0000
     SURFACE LEAKAGE     =           0.0000       SURFACE LEAKAGE     =           0.0000
           AG WELLS      =           0.0000             AG WELLS      =           0.0000

                TOTAL IN =   567645056.0000                  TOTAL IN =          12.6399

          OUT:                                     OUT:
          ----                                     ----
             STORAGE     =    97440504.0000               STORAGE     =           1.3689
       CONSTANT HEAD     =           0.0000         CONSTANT HEAD     =           0.0000
     HEAD DEP BOUNDS     =     9962041.0000       HEAD DEP BOUNDS     =           0.2889
      STREAM LEAKAGE     =   371713856.0000        STREAM LEAKAGE     =          10.9821
        UZF RECHARGE     =           0.0000          UZF RECHARGE     =           0.0000
               GW ET     =     1534490.7500                 GW ET     =           0.0000
     SURFACE LEAKAGE     =           0.0000       SURFACE LEAKAGE     =           0.0000
           AG WELLS      =    86996240.0000             AG WELLS      =           0.0000

               TOTAL OUT =   567647168.0000                 TOTAL OUT =          12.6399

                IN - OUT =       -2112.0000                  IN - OUT =      -1.8120E-05

     PERCENT DISCREPANCY =          -0.00         PERCENT DISCREPANCY =          -0.00






         TIME SUMMARY AT END OF TIME STEP   30 IN STRESS PERIOD   14
                    SECONDS     MINUTES      HOURS       DAYS        YEARS
                    -----------------------------------------------------------
   TIME STEP LENGTH  87667.      1461.1      24.352      1.0147     2.77799E-03
 STRESS PERIOD TIME 2.63000E+06  43833.      730.56      30.440     8.33397E-02
         TOTAL TIME 3.42763E+07 5.71272E+05  9521.2      396.72      1.0862    
1
1
                            STRESS PERIOD NO.   15, LENGTH =   2630000.    
                            -----------------------------------------------

                              NUMBER OF TIME STEPS =    30

                               MULTIPLIER FOR DELT =     1.000

                            INITIAL TIME STEP SIZE =   87666.66    

 REUSING NON-PARAMETER GHB CELLS FROM LAST STRESS PERIOD

      2 GHB CELLS

 REUSING STREAM SEGMENT DATA FROM LAST STRESS PERIOD



            AREAL INFILTRATION RATE
 READING ON UNIT   19 WITH FORMAT: (FREE)              

            1           2           3           4           5           6           7           8           9          10
 ........................................................................................................................
   1   1.0000E-10  2.0000E-10   0.000       0.000       0.000       0.000       0.000       0.000       0.000       0.000    
   2   2.0000E-10  1.0000E-10  2.0000E-10   0.000       0.000      8.0000E-10  8.0000E-10  5.0000E-10   0.000       0.000    
   3    0.000      5.0000E-10  1.0000E-10  1.0000E-10  8.0000E-10  8.0000E-10  5.0000E-10  5.0000E-10   0.000       0.000    
   4   8.0000E-10  5.0000E-10  1.0000E-10  1.0000E-10  1.0000E-10  1.0000E-10  1.0000E-10  1.0000E-10  2.0000E-10   0.000    
   5   8.0000E-10  5.0000E-10  1.0000E-10  1.0000E-10  1.0000E-10  1.0000E-10  1.0000E-10  1.0000E-10  1.0000E-10  1.0000E-10
   6   8.0000E-10  5.0000E-10  5.0000E-10  2.0000E-10  2.0000E-10  1.0000E-10  1.0000E-10  1.0000E-10  1.0000E-10  5.0000E-10
   7   8.0000E-10  5.0000E-10  5.0000E-10  2.0000E-10  2.0000E-10  1.0000E-10  1.0000E-10  2.0000E-10  2.0000E-10   0.000    
   8    0.000      5.0000E-10  5.0000E-10  2.0000E-10  2.0000E-10  1.0000E-10  1.0000E-10  2.0000E-10  5.0000E-10   0.000    
   9    0.000      5.0000E-10  5.0000E-10  2.0000E-10  2.0000E-10  1.0000E-10  1.0000E-10  2.0000E-10  5.0000E-10   0.000    
  10    0.000      5.0000E-10  5.0000E-10  2.0000E-10  2.0000E-10  1.0000E-10  1.0000E-10  2.0000E-10  5.0000E-10  8.0000E-10
  11    0.000      1.0000E-10  1.0000E-10  1.0000E-10  1.0000E-10  1.0000E-10  1.0000E-10  2.0000E-10  5.0000E-10   0.000    
  12   1.0000E-10  1.0000E-10  1.0000E-10  1.0000E-10  1.0000E-10  1.0000E-10  1.0000E-10  1.0000E-10  2.0000E-10   0.000    
  13   1.0000E-10  1.0000E-10  2.0000E-10  2.0000E-10  2.0000E-10  2.0000E-10  2.0000E-10  1.0000E-10  1.0000E-10   0.000    
  14    0.000      2.0000E-10  5.0000E-10  5.0000E-10  5.0000E-10  5.0000E-10  5.0000E-10  2.0000E-10  1.0000E-10   0.000    
  15    0.000       0.000      8.0000E-10  8.0000E-10  8.0000E-10  8.0000E-10   0.000       0.000       0.000       0.000    

                  ET RATE =  5.000000E-10

 USING ET EXTINCTION DEPTH FROM PREVIOUS STRESS PERIOD. CURRENT PERIOD IS:      15

 USING EXTINCTION WATER CONTENT FROM PREVIOUS STRESS PERIOD. CURRENT PERIOD IS:      15

 USING AIR ENTRY PRESSURE FROM PREVIOUS STRESS PERIOD. CURRENT PERIOD IS:      15

 USING ROOT PRESSURE HEAD FROM PREVIOUS STRESS PERIOD. CURRENT PERIOD IS:      15

 USING ROOT ACTIVITY FROM PREVIOUS STRESS PERIOD. CURRENT PERIOD IS:      15

 PROCESSING AG STRESS PERIOD DATA

 READING AG STRESS PERIOD DATA

 READING IRRIGATION SEGMENT

 READING IRRIGATION WELL

 READING SUPPLEMENTAL WELL

 END PROCESSING AG STRESS PERIOD DATA OPTIONS
 
 SOLVING FOR HEAD 
                                                   Max.-Head-Change                         Max.-Flux-Residual
  Residual-Control   Outer-Iter.   Inner-Iter.     Column Row Layer    Maximum-Head-Change  Column Row Layer    Maximum-Flux-Residual          L2-NORM 
          0                 1           2             4    7     1       0.2584311847E-02       4    7    1         0.1355270003E+00      0.3649770790E+00
          0                 2           2             4    7     1      -0.2513832084E-03       4    7    1        -0.1355270936E-01      0.3649357387E-01
          0                 3           1             4    7     1       0.1711826344E-04       4    7    1         0.9486899910E-03      0.2554220568E-02

    ------------------------------------------------
       NWT REQUIRED            3 OUTER ITERATIONS 
       AND A TOTAL OF          5 INNER ITERATIONS.
    ------------------------------------------------

 NO OUTPUT CONTROL FOR STRESS PERIOD   15   TIME STEP    1
 
 SOLVING FOR HEAD 
                                                   Max.-Head-Change                         Max.-Flux-Residual
  Residual-Control   Outer-Iter.   Inner-Iter.     Column Row Layer    Maximum-Head-Change  Column Row Layer    Maximum-Flux-Residual          L2-NORM 
          0                 1           2             4    7     1       0.2560567150E-02       4    7    1         0.1342756576E+00      0.3601041199E+00
          0                 2           2             4    7     1      -0.2490734935E-03       4    7    1        -0.1342757488E-01      0.3600971674E-01
          0                 3           1             4    7     1       0.1696098009E-04       4    7    1         0.9399305575E-03      0.2520679769E-02

    ------------------------------------------------
       NWT REQUIRED            3 OUTER ITERATIONS 
       AND A TOTAL OF          5 INNER ITERATIONS.
    ------------------------------------------------

 NO OUTPUT CONTROL FOR STRESS PERIOD   15   TIME STEP    2
 
 SOLVING FOR HEAD 
                                                   Max.-Head-Change                         Max.-Flux-Residual
  Residual-Control   Outer-Iter.   Inner-Iter.     Column Row Layer    Maximum-Head-Change  Column Row Layer    Maximum-Flux-Residual          L2-NORM 
          0                 1           2             4    7     1       0.2537216404E-02       4    7    1         0.1330445192E+00      0.3581537709E+00
          0                 2           2             4    7     1      -0.2468021001E-03       4    7    1        -0.1330446086E-01      0.3580809847E-01
          0                 3           1             4    7     1       0.1680630677E-04       4    7    1         0.9313125727E-03      0.2505922493E-02

    ------------------------------------------------
       NWT REQUIRED            3 OUTER ITERATIONS 
       AND A TOTAL OF          5 INNER ITERATIONS.
    ------------------------------------------------

 NO OUTPUT CONTROL FOR STRESS PERIOD   15   TIME STEP    3
 
 SOLVING FOR HEAD 
                                                   Max.-Head-Change                         Max.-Flux-Residual
  Residual-Control   Outer-Iter.   Inner-Iter.     Column Row Layer    Maximum-Head-Change  Column Row Layer    Maximum-Flux-Residual          L2-NORM 
          0                 1           2             4    7     1       0.2514242751E-02       4    7    1         0.1318338069E+00      0.3554008824E+00
          0                 2           2             4    7     1      -0.2445673869E-03       4    7    1        -0.1318338941E-01      0.3553420820E-01
          0                 3           1             4    7     1       0.1665413177E-04       4    7    1         0.9228375827E-03      0.2486910542E-02

    ------------------------------------------------
       NWT REQUIRED            3 OUTER ITERATIONS 
       AND A TOTAL OF          5 INNER ITERATIONS.
    ------------------------------------------------

 NO OUTPUT CONTROL FOR STRESS PERIOD   15   TIME STEP    4
 
 SOLVING FOR HEAD 
                                                   Max.-Head-Change                         Max.-Flux-Residual
  Residual-Control   Outer-Iter.   Inner-Iter.     Column Row Layer    Maximum-Head-Change  Column Row Layer    Maximum-Flux-Residual          L2-NORM 
          0                 1           2             4    7     1       0.2491643411E-02       4    7    1         0.1306426464E+00      0.3527413040E+00
          0                 2           2             4    7     1      -0.2423690846E-03       4    7    1        -0.1306427318E-01      0.3526931177E-01
          0                 3           1             4    7     1       0.1650443522E-04       4    7    1         0.9144994349E-03      0.2468435815E-02

    ------------------------------------------------
       NWT REQUIRED            3 OUTER ITERATIONS 
       AND A TOTAL OF          5 INNER ITERATIONS.
    ------------------------------------------------

 NO OUTPUT CONTROL FOR STRESS PERIOD   15   TIME STEP    5
 
 SOLVING FOR HEAD 
                                                   Max.-Head-Change                         Max.-Flux-Residual
  Residual-Control   Outer-Iter.   Inner-Iter.     Column Row Layer    Maximum-Head-Change  Column Row Layer    Maximum-Flux-Residual          L2-NORM 
          0                 1           2             4    7     1       0.2469130364E-02       4    7    1         0.1294560856E+00      0.3501357190E+00
          0                 2           2             4    7     1      -0.2401791763E-03       4    7    1        -0.1294561690E-01      0.3500962250E-01
          0                 3           1             4    7     1       0.1635531047E-04       4    7    1         0.9061934932E-03      0.2450308699E-02

    ------------------------------------------------
       NWT REQUIRED            3 OUTER ITERATIONS 
       AND A TOTAL OF          5 INNER ITERATIONS.
    ------------------------------------------------

 NO OUTPUT CONTROL FOR STRESS PERIOD   15   TIME STEP    6
 
 SOLVING FOR HEAD 
                                                   Max.-Head-Change                         Max.-Flux-Residual
  Residual-Control   Outer-Iter.   Inner-Iter.     Column Row Layer    Maximum-Head-Change  Column Row Layer    Maximum-Flux-Residual          L2-NORM 
          0                 1           2             4    7     1       0.2447253149E-02       4    7    1         0.1283036151E+00      0.3476138215E+00
          0                 2           2             4    7     1      -0.2380511176E-03       4    7    1        -0.1283036971E-01      0.3475816192E-01
          0                 3           1             4    7     1       0.1621039755E-04       4    7    1         0.8981261810E-03      0.2432734740E-02

    ------------------------------------------------
       NWT REQUIRED            3 OUTER ITERATIONS 
       AND A TOTAL OF          5 INNER ITERATIONS.
    ------------------------------------------------

 NO OUTPUT CONTROL FOR STRESS PERIOD   15   TIME STEP    7
 
 SOLVING FOR HEAD 
                                                   Max.-Head-Change                         Max.-Flux-Residual
  Residual-Control   Outer-Iter.   Inner-Iter.     Column Row Layer    Maximum-Head-Change  Column Row Layer    Maximum-Flux-Residual          L2-NORM 
          0                 1           2             4    7     1       0.2425447806E-02       4    7    1         0.1271544954E+00      0.3451542568E+00
          0                 2           2             4    7     1      -0.2359300492E-03       4    7    1        -0.1271545753E-01      0.3451286482E-01
          0                 3           1             4    7     1       0.1606596106E-04       4    7    1         0.8900823439E-03      0.2415609544E-02

    ------------------------------------------------
       NWT REQUIRED            3 OUTER ITERATIONS 
       AND A TOTAL OF          5 INNER ITERATIONS.
    ------------------------------------------------

 NO OUTPUT CONTROL FOR STRESS PERIOD   15   TIME STEP    8
 
 SOLVING FOR HEAD 
                                                   Max.-Head-Change                         Max.-Flux-Residual
  Residual-Control   Outer-Iter.   Inner-Iter.     Column Row Layer    Maximum-Head-Change  Column Row Layer    Maximum-Flux-Residual          L2-NORM 
          0                 1           2             4    7     1       0.2403988834E-02       4    7    1         0.1260239105E+00      0.3427378942E+00
          0                 2           2             4    7     1      -0.2338426747E-03       4    7    1        -0.1260239891E-01      0.3427173822E-01
          0                 3           1             4    7     1       0.1592381864E-04       4    7    1         0.8821682447E-03      0.2398842579E-02

    ------------------------------------------------
       NWT REQUIRED            3 OUTER ITERATIONS 
       AND A TOTAL OF          5 INNER ITERATIONS.
    ------------------------------------------------

 NO OUTPUT CONTROL FOR STRESS PERIOD   15   TIME STEP    9
 
 SOLVING FOR HEAD 
                                                   Max.-Head-Change                         Max.-Flux-Residual
  Residual-Control   Outer-Iter.   Inner-Iter.     Column Row Layer    Maximum-Head-Change  Column Row Layer    Maximum-Flux-Residual          L2-NORM 
          0                 1           2             4    7     1       0.2382868024E-02       4    7    1         0.1249112845E+00      0.3403823729E+00
          0                 2           2             4    7     1      -0.2317881925E-03       4    7    1        -0.1249113611E-01      0.3403662007E-01
          0                 3           1             4    7     1       0.1578391563E-04       4    7    1         0.8743798207E-03      0.2382442569E-02

    ------------------------------------------------
       NWT REQUIRED            3 OUTER ITERATIONS 
       AND A TOTAL OF          5 INNER ITERATIONS.
    ------------------------------------------------

 NO OUTPUT CONTROL FOR STRESS PERIOD   15   TIME STEP   10
 
 SOLVING FOR HEAD 
                                                   Max.-Head-Change                         Max.-Flux-Residual
  Residual-Control   Outer-Iter.   Inner-Iter.     Column Row Layer    Maximum-Head-Change  Column Row Layer    Maximum-Flux-Residual          L2-NORM 
          0                 1           2             4    7     1       0.2362080001E-02       4    7    1         0.1238161919E+00      0.3380709660E+00
          0                 2           2             4    7     1      -0.2297660831E-03       4    7    1        -0.1238162672E-01      0.3380578718E-01
          0                 3           1             4    7     1       0.1564621746E-04       4    7    1         0.8667141722E-03      0.2366120879E-02

    ------------------------------------------------
       NWT REQUIRED            3 OUTER ITERATIONS 
       AND A TOTAL OF          5 INNER ITERATIONS.
    ------------------------------------------------

 NO OUTPUT CONTROL FOR STRESS PERIOD   15   TIME STEP   11
 
 SOLVING FOR HEAD 
                                                   Max.-Head-Change                         Max.-Flux-Residual
  Residual-Control   Outer-Iter.   Inner-Iter.     Column Row Layer    Maximum-Head-Change  Column Row Layer    Maximum-Flux-Residual          L2-NORM 
          0                 1           2             4    7     1       0.2341342019E-02       4    7    1         0.1227235453E+00      0.3357980765E+00
          0                 2           2             4    7     1      -0.2277488401E-03       4    7    1        -0.1227236187E-01      0.3357877237E-01
          0                 3           1             4    7     1       0.1550885064E-04       4    7    1         0.8590656241E-03      0.2350399664E-02

    ------------------------------------------------
       NWT REQUIRED            3 OUTER ITERATIONS 
       AND A TOTAL OF          5 INNER ITERATIONS.
    ------------------------------------------------

 NO OUTPUT CONTROL FOR STRESS PERIOD   15   TIME STEP   12
 
 SOLVING FOR HEAD 
                                                   Max.-Head-Change                         Max.-Flux-Residual
  Residual-Control   Outer-Iter.   Inner-Iter.     Column Row Layer    Maximum-Head-Change  Column Row Layer    Maximum-Flux-Residual          L2-NORM 
          0                 1           2             4    7     1       0.2321208635E-02       4    7    1         0.1216631105E+00      0.3335732795E+00
          0                 2           2             4    7     1      -0.2257904087E-03       4    7    1        -0.1216631824E-01      0.3335649747E-01
          0                 3           1             4    7     1       0.1537548904E-04       4    7    1         0.8516425778E-03      0.2334827452E-02

    ------------------------------------------------
       NWT REQUIRED            3 OUTER ITERATIONS 
       AND A TOTAL OF          5 INNER ITERATIONS.
    ------------------------------------------------

 NO OUTPUT CONTROL FOR STRESS PERIOD   15   TIME STEP   13
 
 SOLVING FOR HEAD 
                                                   Max.-Head-Change                         Max.-Flux-Residual
  Residual-Control   Outer-Iter.   Inner-Iter.     Column Row Layer    Maximum-Head-Change  Column Row Layer    Maximum-Flux-Residual          L2-NORM 
          0                 1           2             4    7     1       0.2301105612E-02       4    7    1         0.1206044062E+00      0.3313782326E+00
          0                 2           2             4    7     1      -0.2238349306E-03       4    7    1        -0.1206044766E-01      0.3313724408E-01
          0                 3           1             4    7     1       0.1524232837E-04       4    7    1         0.8442316478E-03      0.2319508764E-02

    ------------------------------------------------
       NWT REQUIRED            3 OUTER ITERATIONS 
       AND A TOTAL OF          5 INNER ITERATIONS.
    ------------------------------------------------

 NO OUTPUT CONTROL FOR STRESS PERIOD   15   TIME STEP   14
 
 SOLVING FOR HEAD 
                                                   Max.-Head-Change                         Max.-Flux-Residual
  Residual-Control   Outer-Iter.   Inner-Iter.     Column Row Layer    Maximum-Head-Change  Column Row Layer    Maximum-Flux-Residual          L2-NORM 
          0                 1           2             4    7     1       0.2281318659E-02       4    7    1         0.1195620846E+00      0.3292232315E+00
          0                 2           2             4    7     1      -0.2219101975E-03       4    7    1        -0.1195621536E-01      0.3292187289E-01
          0                 3           1             4    7     1       0.1511126108E-04       4    7    1         0.8369353718E-03      0.2304492216E-02

    ------------------------------------------------
       NWT REQUIRED            3 OUTER ITERATIONS 
       AND A TOTAL OF          5 INNER ITERATIONS.
    ------------------------------------------------

 NO OUTPUT CONTROL FOR STRESS PERIOD   15   TIME STEP   15
 
 SOLVING FOR HEAD 
                                                   Max.-Head-Change                         Max.-Flux-Residual
  Residual-Control   Outer-Iter.   Inner-Iter.     Column Row Layer    Maximum-Head-Change  Column Row Layer    Maximum-Flux-Residual          L2-NORM 
          0                 1           2             4    7     1       0.2261833943E-02       4    7    1         0.1185361509E+00      0.3270962776E+00
          0                 2           2             4    7     1      -0.2200148643E-03       4    7    1        -0.1185362188E-01      0.3270927148E-01
          0                 3           1             4    7     1       0.1498219557E-04       4    7    1         0.8297538222E-03      0.2289608918E-02

    ------------------------------------------------
       NWT REQUIRED            3 OUTER ITERATIONS 
       AND A TOTAL OF          5 INNER ITERATIONS.
    ------------------------------------------------

 NO OUTPUT CONTROL FOR STRESS PERIOD   15   TIME STEP   16
 
 SOLVING FOR HEAD 
                                                   Max.-Head-Change                         Max.-Flux-Residual
  Residual-Control   Outer-Iter.   Inner-Iter.     Column Row Layer    Maximum-Head-Change  Column Row Layer    Maximum-Flux-Residual          L2-NORM 
          0                 1           2             4    7     1       0.2242646917E-02       4    7    1         0.1175258879E+00      0.3250121753E+00
          0                 2           2             4    7     1      -0.2181484872E-03       4    7    1        -0.1175259540E-01      0.3250095597E-01
          0                 3           1             4    7     1       0.1485510250E-04       4    7    1         0.8226819725E-03      0.2275048362E-02

    ------------------------------------------------
       NWT REQUIRED            3 OUTER ITERATIONS 
       AND A TOTAL OF          5 INNER ITERATIONS.
    ------------------------------------------------

 NO OUTPUT CONTROL FOR STRESS PERIOD   15   TIME STEP   17
 
 SOLVING FOR HEAD 
                                                   Max.-Head-Change                         Max.-Flux-Residual
  Residual-Control   Outer-Iter.   Inner-Iter.     Column Row Layer    Maximum-Head-Change  Column Row Layer    Maximum-Flux-Residual          L2-NORM 
          0                 1           2             4    7     1       0.2223750661E-02       4    7    1         0.1165310598E+00      0.3229500510E+00
          0                 2           2             4    7     1      -0.2163103950E-03       4    7    1        -0.1165311248E-01      0.3229483481E-01
          0                 3           1             4    7     1       0.1472993500E-04       4    7    1         0.8157181528E-03      0.2260591688E-02

    ------------------------------------------------
       NWT REQUIRED            3 OUTER ITERATIONS 
       AND A TOTAL OF          5 INNER ITERATIONS.
    ------------------------------------------------

 NO OUTPUT CONTROL FOR STRESS PERIOD   15   TIME STEP   18
 
 SOLVING FOR HEAD 
                                                   Max.-Head-Change                         Max.-Flux-Residual
  Residual-Control   Outer-Iter.   Inner-Iter.     Column Row Layer    Maximum-Head-Change  Column Row Layer    Maximum-Flux-Residual          L2-NORM 
          0                 1           2             4    7     1       0.2204861299E-02       4    7    1         0.1155364988E+00      0.3209045262E+00
          0                 2           2             4    7     1      -0.2144729733E-03       4    7    1        -0.1155365625E-01      0.3209035252E-01
          0                 3           1             4    7     1       0.1460481341E-04       4    7    1         0.8087562192E-03      0.2246333250E-02

    ------------------------------------------------
       NWT REQUIRED            3 OUTER ITERATIONS 
       AND A TOTAL OF          5 INNER ITERATIONS.
    ------------------------------------------------

 NO OUTPUT CONTROL FOR STRESS PERIOD   15   TIME STEP   19
 
 SOLVING FOR HEAD 
                                                   Max.-Head-Change                         Max.-Flux-Residual
  Residual-Control   Outer-Iter.   Inner-Iter.     Column Row Layer    Maximum-Head-Change  Column Row Layer    Maximum-Flux-Residual          L2-NORM 
          0                 1           2             4    7     1       0.2186537171E-02       4    7    1         0.1145719133E+00      0.3189104904E+00
          0                 2           2             4    7     1      -0.2126905334E-03       4    7    1        -0.1145719757E-01      0.3189098117E-01
          0                 3           1             4    7     1       0.1448343624E-04       4    7    1         0.8020041221E-03      0.2232350060E-02

    ------------------------------------------------
       NWT REQUIRED            3 OUTER ITERATIONS 
       AND A TOTAL OF          5 INNER ITERATIONS.
    ------------------------------------------------

 NO OUTPUT CONTROL FOR STRESS PERIOD   15   TIME STEP   20
 
 SOLVING FOR HEAD 
                                                   Max.-Head-Change                         Max.-Flux-Residual
  Residual-Control   Outer-Iter.   Inner-Iter.     Column Row Layer    Maximum-Head-Change  Column Row Layer    Maximum-Flux-Residual          L2-NORM 
          0                 1           2             4    7     1       0.2168212382E-02       4    7    1         0.1136070163E+00      0.3169306544E+00
          0                 2           2             4    7     1      -0.2109080293E-03       4    7    1        -0.1136070775E-01      0.3169299772E-01
          0                 3           1             4    7     1       0.1436205409E-04       4    7    1         0.7952498108E-03      0.2218502254E-02

    ------------------------------------------------
       NWT REQUIRED            3 OUTER ITERATIONS 
       AND A TOTAL OF          5 INNER ITERATIONS.
    ------------------------------------------------

 NO OUTPUT CONTROL FOR STRESS PERIOD   15   TIME STEP   21
 
 SOLVING FOR HEAD 
                                                   Max.-Head-Change                         Max.-Flux-Residual
  Residual-Control   Outer-Iter.   Inner-Iter.     Column Row Layer    Maximum-Head-Change  Column Row Layer    Maximum-Flux-Residual          L2-NORM 
          0                 1           2             4    7     1       0.2150163286E-02       4    7    1         0.1126568943E+00      0.3149771710E+00
          0                 2           2             4    7     1      -0.2091523423E-03       4    7    1        -0.1126569540E-01      0.3149770335E-01
          0                 3           1             4    7     1       0.1424249811E-04       4    7    1         0.7885989476E-03      0.2204819712E-02

    ------------------------------------------------
       NWT REQUIRED            3 OUTER ITERATIONS 
       AND A TOTAL OF          5 INNER ITERATIONS.
    ------------------------------------------------

 NO OUTPUT CONTROL FOR STRESS PERIOD   15   TIME STEP   22
 
 SOLVING FOR HEAD 
                                                   Max.-Head-Change                         Max.-Flux-Residual
  Residual-Control   Outer-Iter.   Inner-Iter.     Column Row Layer    Maximum-Head-Change  Column Row Layer    Maximum-Flux-Residual          L2-NORM 
          0                 1           2             4    7     1       0.2132384661E-02       4    7    1         0.1117210666E+00      0.3130429125E+00
          0                 2           2             4    7     1      -0.2074229659E-03       4    7    1        -0.1117211255E-01      0.3130426597E-01
          0                 3           1             4    7     1       0.1412473446E-04       4    7    1         0.7820481621E-03      0.2191290608E-02

    ------------------------------------------------
       NWT REQUIRED            3 OUTER ITERATIONS 
       AND A TOTAL OF          5 INNER ITERATIONS.
    ------------------------------------------------

 NO OUTPUT CONTROL FOR STRESS PERIOD   15   TIME STEP   23
 
 SOLVING FOR HEAD 
                                                   Max.-Head-Change                         Max.-Flux-Residual
  Residual-Control   Outer-Iter.   Inner-Iter.     Column Row Layer    Maximum-Head-Change  Column Row Layer    Maximum-Flux-Residual          L2-NORM 
          0                 1           2             4    7     1       0.2114867529E-02       4    7    1         0.1107992625E+00      0.3111463430E+00
          0                 2           2             4    7     1      -0.2057190249E-03       4    7    1        -0.1107993202E-01      0.3111462065E-01
          0                 3           1             4    7     1       0.1400870279E-04       4    7    1         0.7755955423E-03      0.2178022673E-02

    ------------------------------------------------
       NWT REQUIRED            3 OUTER ITERATIONS 
       AND A TOTAL OF          5 INNER ITERATIONS.
    ------------------------------------------------

 NO OUTPUT CONTROL FOR STRESS PERIOD   15   TIME STEP   24
 
 SOLVING FOR HEAD 
                                                   Max.-Head-Change                         Max.-Flux-Residual
  Residual-Control   Outer-Iter.   Inner-Iter.     Column Row Layer    Maximum-Head-Change  Column Row Layer    Maximum-Flux-Residual          L2-NORM 
          0                 1           2             4    7     1       0.2097613422E-02       4    7    1         0.1098910166E+00      0.3092755974E+00
          0                 2           2             4    7     1      -0.2040406690E-03       4    7    1        -0.1098910731E-01      0.3092750938E-01
          0                 3           1             4    7     1       0.1389441232E-04       4    7    1         0.7692377937E-03      0.2164931602E-02

    ------------------------------------------------
       NWT REQUIRED            3 OUTER ITERATIONS 
       AND A TOTAL OF          5 INNER ITERATIONS.
    ------------------------------------------------

 NO OUTPUT CONTROL FOR STRESS PERIOD   15   TIME STEP   25
 
 SOLVING FOR HEAD 
                                                   Max.-Head-Change                         Max.-Flux-Residual
  Residual-Control   Outer-Iter.   Inner-Iter.     Column Row Layer    Maximum-Head-Change  Column Row Layer    Maximum-Flux-Residual          L2-NORM 
          0                 1           2             4    7     1       0.2080336224E-02       4    7    1         0.1089815988E+00      0.3074120799E+00
          0                 2           2             4    7     1      -0.2023600668E-03       4    7    1        -0.1089816542E-01      0.3074120896E-01
          0                 3           1             4    7     1       0.1377996943E-04       4    7    1         0.7628718483E-03      0.2151872863E-02

    ------------------------------------------------
       NWT REQUIRED            3 OUTER ITERATIONS 
       AND A TOTAL OF          5 INNER ITERATIONS.
    ------------------------------------------------

 NO OUTPUT CONTROL FOR STRESS PERIOD   15   TIME STEP   26
 
 SOLVING FOR HEAD 
                                                   Max.-Head-Change                         Max.-Flux-Residual
  Residual-Control   Outer-Iter.   Inner-Iter.     Column Row Layer    Maximum-Head-Change  Column Row Layer    Maximum-Flux-Residual          L2-NORM 
          0                 1           2             4    7     1       0.2063591088E-02       4    7    1         0.1081006028E+00      0.3055831726E+00
          0                 2           2             4    7     1      -0.2007312199E-03       4    7    1        -0.1081006570E-01      0.3055827260E-01
          0                 3           1             4    7     1       0.1366905132E-04       4    7    1         0.7567048681E-03      0.2139069594E-02

    ------------------------------------------------
       NWT REQUIRED            3 OUTER ITERATIONS 
       AND A TOTAL OF          5 INNER ITERATIONS.
    ------------------------------------------------

 NO OUTPUT CONTROL FOR STRESS PERIOD   15   TIME STEP   27
 
 SOLVING FOR HEAD 
                                                   Max.-Head-Change                         Max.-Flux-Residual
  Residual-Control   Outer-Iter.   Inner-Iter.     Column Row Layer    Maximum-Head-Change  Column Row Layer    Maximum-Flux-Residual          L2-NORM 
          0                 1           2             4    7     1       0.2046808405E-02       4    7    1         0.1072175743E+00      0.3037607518E+00
          0                 2           2             4    7     1      -0.1990987215E-03       4    7    1        -0.1072176277E-01      0.3037601252E-01
          0                 3           1             4    7     1       0.1355788423E-04       4    7    1         0.7505236724E-03      0.2126317600E-02

    ------------------------------------------------
       NWT REQUIRED            3 OUTER ITERATIONS 
       AND A TOTAL OF          5 INNER ITERATIONS.
    ------------------------------------------------

 NO OUTPUT CONTROL FOR STRESS PERIOD   15   TIME STEP   28
 
 SOLVING FOR HEAD 
                                                   Max.-Head-Change                         Max.-Flux-Residual
  Residual-Control   Outer-Iter.   Inner-Iter.     Column Row Layer    Maximum-Head-Change  Column Row Layer    Maximum-Flux-Residual          L2-NORM 
          0                 1           2             4   13     1       0.4548880564E-02       4   13    1         0.2612696577E+00      0.5832444814E+00
          0                 2           2             7   13     1      -0.9980727568E-03       7   13    1        -0.5536089715E-01      0.7829922019E-01
          0                 3           1             7   13     1       0.6794728693E-04       7   13    1         0.3874272908E-02      0.5405331399E-02

    ------------------------------------------------
       NWT REQUIRED            3 OUTER ITERATIONS 
       AND A TOTAL OF          5 INNER ITERATIONS.
    ------------------------------------------------

 NO OUTPUT CONTROL FOR STRESS PERIOD   15   TIME STEP   29
 
 SOLVING FOR HEAD 
                                                   Max.-Head-Change                         Max.-Flux-Residual
  Residual-Control   Outer-Iter.   Inner-Iter.     Column Row Layer    Maximum-Head-Change  Column Row Layer    Maximum-Flux-Residual          L2-NORM 
          0                 1           2             4   13     1       0.2193290001E-01       4   13    1         0.1265902628E+01      0.2319447663E+01
          0                 2           2             4   13     1      -0.2110145960E-02       4   13    1        -0.1252268447E+00      0.2252253699E+00
          0                 3           2             4   13     1       0.1415033618E-03       4   13    1         0.8634193749E-02      0.1513733340E-01
          0                 4           1             4   13     1      -0.5493582044E-05       4   13    1        -0.3446862183E-03      0.5786028451E-03

    ------------------------------------------------
       NWT REQUIRED            4 OUTER ITERATIONS 
       AND A TOTAL OF          7 INNER ITERATIONS.
    ------------------------------------------------

 NO OUTPUT CONTROL FOR STRESS PERIOD   15   TIME STEP   30



 STREAM LISTING     PERIOD     15   STEP       30

 LAYER ROW COL. STREAM  RCH.  FLOW INTO     FLOW TO   FLOW OUT OF   OVRLND.     DIRECT     STREAM       STREAM     STREAM     STREAM   STREAMBED  STREAMBED
                SEG.NO.  NO.  STRM. RCH.    AQUIFER    STRM. RCH.    RUNOFF     PRECIP       ET          HEAD       DEPTH      WIDTH   CONDCTNC.   GRADIENT

   1    1    1     1     1    7.3501E+01  4.1745E-01   7.3084E+01  0.000E+00  0.000E+00  0.000E+00  1.09473E+03  1.681E+00  1.982E+01  8.917E-02  1.560E+00
   1    2    2     1     2    7.3084E+01  6.4666E-01   7.2437E+01  0.000E+00  0.000E+00  0.000E+00  1.08973E+03  1.675E+00  1.976E+01  1.383E-01  1.558E+00
   1    3    3     1     3    7.2437E+01  5.5167E-01   7.1885E+01  0.000E+00  0.000E+00  0.000E+00  1.08409E+03  1.669E+00  1.969E+01  1.182E-01  1.556E+00
   1    3    4     1     4    7.1885E+01  5.0815E-01   7.1377E+01  0.000E+00  0.000E+00  0.000E+00  1.07907E+03  1.663E+00  1.963E+01  1.090E-01  1.554E+00
   1    4    5     2     1    6.9377E+01  4.0746E-01   6.8970E+01  0.000E+00  0.000E+00  0.000E+00  1.07416E+03  2.224E+00  1.200E+01  7.800E-02  1.741E+00
   1    5    6     2     2    6.8970E+01  3.1301E-01   6.8657E+01  0.000E+00  0.000E+00  0.000E+00  1.06873E+03  2.217E+00  1.200E+01  6.000E-02  1.739E+00
   1    6    6     2     3    6.8657E+01  3.1265E-01   6.8344E+01  0.000E+00  0.000E+00  0.000E+00  1.06400E+03  2.211E+00  1.200E+01  6.000E-02  1.737E+00
   1    7    6     2     4    6.8344E+01  3.1229E-01   6.8032E+01  0.000E+00  0.000E+00  0.000E+00  1.05928E+03  2.205E+00  1.200E+01  6.000E-02  1.735E+00
   1    8    6     2     5    6.8032E+01  3.1192E-01   6.7720E+01  0.000E+00  0.000E+00  0.000E+00  1.05456E+03  2.199E+00  1.200E+01  6.000E-02  1.733E+00
   1    3    5     3     1    2.0000E+00  2.8252E-01   1.7175E+00  0.000E+00  0.000E+00  0.000E+00  1.07555E+03  1.909E+00  9.636E+00  7.227E-02  1.955E+00
   1    3    6     3     2    1.7175E+00  2.4905E-01   1.4684E+00  0.000E+00  0.000E+00  0.000E+00  1.07264E+03  1.727E+00  8.909E+00  6.682E-02  1.864E+00
   1    3    7     3     3    1.4684E+00  1.9718E-01   1.2712E+00  0.000E+00  0.000E+00  0.000E+00  1.06987E+03  1.555E+00  8.218E+00  5.547E-02  1.777E+00
   1    4    8     3     4    1.2712E+00  2.2567E-01   1.0456E+00  0.000E+00  0.000E+00  0.000E+00  1.06682E+03  1.364E+00  7.455E+00  6.709E-02  1.682E+00
   1    5    8     3     5    1.0456E+00  1.5790E-01   8.8768E-01  0.000E+00  0.000E+00  0.000E+00  1.06362E+03  1.164E+00  6.655E+00  4.991E-02  1.582E+00
   1    6    8     3     6    8.8768E-01  5.5980E-02   8.3170E-01  0.000E+00  0.000E+00  0.000E+00  1.06158E+03  1.036E+00  6.145E+00  1.844E-02  1.518E+00
   1    5   10     4     1    1.0000E+01  9.0919E-02   9.9091E+00  0.000E+00  0.000E+00  0.000E+00  1.07836E+03  6.368E-01  1.000E+01  2.500E-02  1.212E+00
   1    5    9     4     2    9.9091E+00  1.8158E-01   9.7275E+00  0.000E+00  0.000E+00  0.000E+00  1.07154E+03  6.315E-01  1.000E+01  5.000E-02  1.211E+00
   1    6    8     4     3    9.7275E+00  1.2689E-01   9.6006E+00  0.000E+00  0.000E+00  0.000E+00  1.06381E+03  6.256E-01  1.000E+01  3.500E-02  1.209E+00
   1    6    8     5     1    1.0432E+01  2.2686E-01   1.0205E+01  0.000E+00  0.000E+00  0.000E+00  1.05868E+03  6.790E-01  1.542E+01  6.166E-02  1.226E+00
   1    7    7     5     2    1.0205E+01  2.7894E-01   9.9265E+00  0.000E+00  0.000E+00  0.000E+00  1.05417E+03  6.732E-01  1.519E+01  7.594E-02  1.224E+00
   1    8    7     5     3    9.9265E+00  1.9221E-01   9.7343E+00  0.000E+00  0.000E+00  0.000E+00  1.04992E+03  6.676E-01  1.497E+01  5.241E-02  1.223E+00
   1    8    6     5     4    9.7343E+00  1.3577E-01   9.5985E+00  0.000E+00  0.000E+00  0.000E+00  1.04691E+03  6.637E-01  1.482E+01  3.706E-02  1.221E+00
   1    9    6     6     1    7.7318E+01  3.2406E-01   7.6994E+01  0.000E+00  0.000E+00  0.000E+00  1.04513E+03  2.401E+00  1.200E+01  6.000E-02  1.800E+00
   1   10    7     6     2    7.6994E+01  3.2370E-01   7.6671E+01  0.000E+00  0.000E+00  0.000E+00  1.04058E+03  2.395E+00  1.200E+01  6.000E-02  1.798E+00
   1   11    7     6     3    7.6671E+01  3.2333E-01   7.6347E+01  0.000E+00  0.000E+00  0.000E+00  1.03603E+03  2.389E+00  1.200E+01  6.000E-02  1.796E+00
   1   12    7     6     4    7.6347E+01  3.2297E-01   7.6024E+01  0.000E+00  0.000E+00  0.000E+00  1.03147E+03  2.383E+00  1.200E+01  6.000E-02  1.794E+00
   1   13    7     6     5    7.6024E+01  2.8524E-02   7.5996E+01  0.000E+00  0.000E+00  0.000E+00  1.02829E+03  2.380E+00  1.200E+01  2.400E-02  3.962E-01
   1   14    9     7     1    1.5000E+02  1.3363E+00   1.4866E+02  0.000E+00  0.000E+00  0.000E+00  1.03987E+03  2.288E+00  5.529E+01  5.593E-01  7.964E-01
   1   13    8     7     2    1.4866E+02  1.8266E+00   1.4684E+02  0.000E+00  0.000E+00  0.000E+00  1.03478E+03  2.279E+00  5.526E+01  6.148E-01  9.904E-01
   1   13    7     7     3    1.4684E+02  1.4463E+00   1.4539E+02  0.000E+00  0.000E+00  0.000E+00  1.02969E+03  2.271E+00  5.522E+01  5.585E-01  8.633E-01
   1   13    6     8     1    2.2139E+02  1.1297E+00   2.2026E+02  0.000E+00  0.000E+00  0.000E+00  1.02513E+03  3.256E+00  4.722E+01  4.812E-01  7.826E-01
   1   13    5     8     2    2.2026E+02  3.0296E-01   2.1995E+02  0.000E+00  0.000E+00  0.000E+00  1.01888E+03  3.252E+00  4.716E+01  4.806E-01  2.101E-01
   1   13    4     8     3    2.1995E+02 -1.4163E+00   2.2137E+02  0.000E+00  0.000E+00  0.000E+00  1.01263E+03  3.256E+00  4.721E+01  4.810E+00 -9.814E-02
   1   13    3     8     4    2.2137E+02 -2.6776E+00   2.2405E+02  0.000E+00  0.000E+00  0.000E+00  1.00639E+03  3.267E+00  4.737E+01  4.827E+00 -1.849E-01
   1   13    2     8     5    2.2405E+02 -1.4638E+00   2.2551E+02  0.000E+00  0.000E+00  0.000E+00  1.00015E+03  3.278E+00  4.753E+01  4.844E+00 -1.007E-01
   1   13    1     8     6    2.2551E+02 -1.3332E+00   2.2684E+02  0.000E+00  0.000E+00  0.000E+00  9.95161E+02  3.286E+00  4.764E+01  2.913E+00 -1.526E-01
   1    8    6     9     1    0.0000E+00  0.0000E+00   0.0000E+00  0.000E+00  0.000E+00  0.000E+00  1.07875E+03  0.000E+00  4.000E+00  0.000E+00  1.000E+00
   1    8    5     9     2    0.0000E+00  0.0000E+00   0.0000E+00  0.000E+00  0.000E+00  0.000E+00  1.07825E+03  0.000E+00  4.000E+00  0.000E+00  1.000E+00





UNSATURATED ZONE PACKAGE VOLUMETRIC BUDGET FOR  TIME STEP    30 STRESS PERIOD   15
  ------------------------------------------------------------------------------



     CUMULATIVE VOLUMES      L**3       RATES FOR THIS TIME STEP      L**3/T
     ------------------                 ------------------------

           IN:                                      IN:
           ---                                      ---
        INFILTRATION =   475238466.6735          INFILTRATION =           0.8475

          OUT:                                     OUT:
          ----                                     ----
              UZF ET =   433982648.1623                UZF ET =           0.7500
        UZF RECHARGE =       73224.0000          UZF RECHARGE =       0.0000E+00

            IN - OUT =    41182594.5112              IN - OUT =       9.7500E-02

          STORAGE:                                 STORAGE:
          --------                                 --------
      STORAGE CHANGE =    41198194.6638        STORAGE CHANGE =       9.7500E-02

 PERCENT DISCREPANCY IS DIFFERENCE BETWEEN IN-OUT MINUS CHANGE IN STORAGE
 DIVIDED BY THE AVERAGE OF IN AND OUT TIMES 100

 PERCENT DISCREPANCY =          -0.00     PERCENT DISCREPANCY =           0.00






1
  VOLUMETRIC BUDGET FOR AGRICULTURAL FIELDS AT  END OF TIME STEP   30, STRESS PERIOD  15
  ------------------------------------------------------------------------------

     CUMULATIVE VOLUMES      L**3       RATES FOR THIS TIME STEP      L**3/T
     ------------------                 ------------------------

           IN:                                      IN:
           ---                                      ---
           AG WELLS      =    86996240.0000             AG WELLS      =           0.0000
      DIVERSION SEGMENTS =   356960448.0000        DIVERSION SEGMENTS =           0.0000
           GW IRRIGATION =           0.0000             GW IRRIGATION =           0.0000
           SW IRRIGATION =           0.0000             SW IRRIGATION =           0.0000
        SYSTEM LOSSES GW =           0.0000          SYSTEM LOSSES GW =           0.0000
        SYSTEM LOSSES SW =           0.0000          SYSTEM LOSSES SW =           0.0000

                TOTAL IN =   443956672.0000                  TOTAL IN =           0.0000

          OUT:                                     OUT:
          ----                                     ----
           AG WELLS      =           0.0000             AG WELLS      =           0.0000
      DIVERSION SEGMENTS =           0.0000        DIVERSION SEGMENTS =           0.0000
           GW IRRIGATION =    86996240.0000             GW IRRIGATION =           0.0000
           SW IRRIGATION =   356967584.0000             SW IRRIGATION =           0.0000
        SYSTEM LOSSES GW =           0.0000          SYSTEM LOSSES GW =           0.0000
        SYSTEM LOSSES SW =           0.0000          SYSTEM LOSSES SW =           0.0000

               TOTAL OUT =   443963840.0000                 TOTAL OUT =           0.0000

                IN - OUT =       -7168.0000                  IN - OUT =           0.0000

     PERCENT DISCREPANCY =          -0.00         PERCENT DISCREPANCY =           0.00



1
  VOLUMETRIC BUDGET FOR ENTIRE MODEL AT END OF TIME STEP   30, STRESS PERIOD  15
  ------------------------------------------------------------------------------

     CUMULATIVE VOLUMES      L**3       RATES FOR THIS TIME STEP      L**3/T
     ------------------                 ------------------------

           IN:                                      IN:
           ---                                      ---
             STORAGE     =   152542560.0000               STORAGE     =           0.7592
       CONSTANT HEAD     =           0.0000         CONSTANT HEAD     =           0.0000
     HEAD DEP BOUNDS     =    10545885.0000       HEAD DEP BOUNDS     =           0.2858
      STREAM LEAKAGE     =   437622080.0000        STREAM LEAKAGE     =          13.5472
        UZF RECHARGE     =       73223.9531          UZF RECHARGE     =           0.0000
               GW ET     =           0.0000                 GW ET     =           0.0000
     SURFACE LEAKAGE     =           0.0000       SURFACE LEAKAGE     =           0.0000
           AG WELLS      =           0.0000             AG WELLS      =           0.0000

                TOTAL IN =   600783744.0000                  TOTAL IN =          14.5922

          OUT:                                     OUT:
          ----                                     ----
             STORAGE     =   101582704.0000               STORAGE     =           7.4119
       CONSTANT HEAD     =           0.0000         CONSTANT HEAD     =           0.0000
     HEAD DEP BOUNDS     =    10722050.0000       HEAD DEP BOUNDS     =           0.2895
      STREAM LEAKAGE     =   399950432.0000        STREAM LEAKAGE     =           6.8908
        UZF RECHARGE     =           0.0000          UZF RECHARGE     =           0.0000
               GW ET     =     1534490.7500                 GW ET     =           0.0000
     SURFACE LEAKAGE     =           0.0000       SURFACE LEAKAGE     =           0.0000
           AG WELLS      =    86996240.0000             AG WELLS      =           0.0000

               TOTAL OUT =   600785920.0000                 TOTAL OUT =          14.5922

                IN - OUT =       -2176.0000                  IN - OUT =       2.6703E-05

     PERCENT DISCREPANCY =          -0.00         PERCENT DISCREPANCY =           0.00






         TIME SUMMARY AT END OF TIME STEP   30 IN STRESS PERIOD   15
                    SECONDS     MINUTES      HOURS       DAYS        YEARS
                    -----------------------------------------------------------
   TIME STEP LENGTH  87667.      1461.1      24.352      1.0147     2.77799E-03
 STRESS PERIOD TIME 2.63000E+06  43833.      730.56      30.440     8.33397E-02
         TOTAL TIME 3.69063E+07 6.15106E+05  10252.      427.16      1.1695    
1
1
                            STRESS PERIOD NO.   16, LENGTH =   2630000.    
                            -----------------------------------------------

                              NUMBER OF TIME STEPS =    30

                               MULTIPLIER FOR DELT =     1.000

                            INITIAL TIME STEP SIZE =   87666.66    

 REUSING NON-PARAMETER GHB CELLS FROM LAST STRESS PERIOD

      2 GHB CELLS

 REUSING STREAM SEGMENT DATA FROM LAST STRESS PERIOD



            AREAL INFILTRATION RATE
 READING ON UNIT   19 WITH FORMAT: (FREE)              

            1           2           3           4           5           6           7           8           9          10
 ........................................................................................................................
   1   1.0000E-10  2.0000E-10   0.000       0.000       0.000       0.000       0.000       0.000       0.000       0.000    
   2   2.0000E-10  1.0000E-10  2.0000E-10   0.000       0.000      8.0000E-10  8.0000E-10  5.0000E-10   0.000       0.000    
   3    0.000      5.0000E-10  1.0000E-10  1.0000E-10  8.0000E-10  8.0000E-10  5.0000E-10  5.0000E-10   0.000       0.000    
   4   8.0000E-10  5.0000E-10  1.0000E-10  1.0000E-10  1.0000E-10  1.0000E-10  1.0000E-10  1.0000E-10  2.0000E-10   0.000    
   5   8.0000E-10  5.0000E-10  1.0000E-10  1.0000E-10  1.0000E-10  1.0000E-10  1.0000E-10  1.0000E-10  1.0000E-10  1.0000E-10
   6   8.0000E-10  5.0000E-10  5.0000E-10  2.0000E-10  2.0000E-10  1.0000E-10  1.0000E-10  1.0000E-10  1.0000E-10  5.0000E-10
   7   8.0000E-10  5.0000E-10  5.0000E-10  2.0000E-10  2.0000E-10  1.0000E-10  1.0000E-10  2.0000E-10  2.0000E-10   0.000    
   8    0.000      5.0000E-10  5.0000E-10  2.0000E-10  2.0000E-10  1.0000E-10  1.0000E-10  2.0000E-10  5.0000E-10   0.000    
   9    0.000      5.0000E-10  5.0000E-10  2.0000E-10  2.0000E-10  1.0000E-10  1.0000E-10  2.0000E-10  5.0000E-10   0.000    
  10    0.000      5.0000E-10  5.0000E-10  2.0000E-10  2.0000E-10  1.0000E-10  1.0000E-10  2.0000E-10  5.0000E-10  8.0000E-10
  11    0.000      1.0000E-10  1.0000E-10  1.0000E-10  1.0000E-10  1.0000E-10  1.0000E-10  2.0000E-10  5.0000E-10   0.000    
  12   1.0000E-10  1.0000E-10  1.0000E-10  1.0000E-10  1.0000E-10  1.0000E-10  1.0000E-10  1.0000E-10  2.0000E-10   0.000    
  13   1.0000E-10  1.0000E-10  2.0000E-10  2.0000E-10  2.0000E-10  2.0000E-10  2.0000E-10  1.0000E-10  1.0000E-10   0.000    
  14    0.000      2.0000E-10  5.0000E-10  5.0000E-10  5.0000E-10  5.0000E-10  5.0000E-10  2.0000E-10  1.0000E-10   0.000    
  15    0.000       0.000      8.0000E-10  8.0000E-10  8.0000E-10  8.0000E-10   0.000       0.000       0.000       0.000    

                  ET RATE =  5.000000E-10

 USING ET EXTINCTION DEPTH FROM PREVIOUS STRESS PERIOD. CURRENT PERIOD IS:      16

 USING EXTINCTION WATER CONTENT FROM PREVIOUS STRESS PERIOD. CURRENT PERIOD IS:      16

 USING AIR ENTRY PRESSURE FROM PREVIOUS STRESS PERIOD. CURRENT PERIOD IS:      16

 USING ROOT PRESSURE HEAD FROM PREVIOUS STRESS PERIOD. CURRENT PERIOD IS:      16

 USING ROOT ACTIVITY FROM PREVIOUS STRESS PERIOD. CURRENT PERIOD IS:      16

 PROCESSING AG STRESS PERIOD DATA

 READING AG STRESS PERIOD DATA

 READING IRRIGATION SEGMENT

 READING IRRIGATION WELL

 READING SUPPLEMENTAL WELL

 END PROCESSING AG STRESS PERIOD DATA OPTIONS
 
 SOLVING FOR HEAD 
                                                   Max.-Head-Change                         Max.-Flux-Residual
  Residual-Control   Outer-Iter.   Inner-Iter.     Column Row Layer    Maximum-Head-Change  Column Row Layer    Maximum-Flux-Residual          L2-NORM 
          0                 1           2             4   13     1       0.1976471542E-01       4   13    1         0.1140118172E+01      0.2145478659E+01
          0                 2           2             4   13     1      -0.1901514767E-02       4   13    1        -0.1127812505E+00      0.2084570461E+00
          0                 3           2             4   13     1       0.1275039867E-03       4   13    1         0.7775485157E-02      0.1402220589E-01
          0                 4           1             4   13     1      -0.4933148024E-05       4   13    1        -0.3093271616E-03      0.5365166093E-03

    ------------------------------------------------
       NWT REQUIRED            4 OUTER ITERATIONS 
       AND A TOTAL OF          7 INNER ITERATIONS.
    ------------------------------------------------

 NO OUTPUT CONTROL FOR STRESS PERIOD   16   TIME STEP    1
 
 SOLVING FOR HEAD 
                                                   Max.-Head-Change                         Max.-Flux-Residual
  Residual-Control   Outer-Iter.   Inner-Iter.     Column Row Layer    Maximum-Head-Change  Column Row Layer    Maximum-Flux-Residual          L2-NORM 
          0                 1           2             2   13     1       0.1816076946E-01       2   13    1         0.1028141350E+01      0.1988641941E+01
          0                 2           2             4   13     1      -0.1714487378E-02       4   13    1        -0.1016279991E+00      0.1933448751E+00
          0                 3           1             4   13     1       0.1149760864E-03       4   13    1         0.7007294897E-02      0.1301818222E-01
          0                 4           1             4   13     1      -0.4473967116E-05       4   13    1        -0.2803738334E-03      0.5001495961E-03

    ------------------------------------------------
       NWT REQUIRED            4 OUTER ITERATIONS 
       AND A TOTAL OF          6 INNER ITERATIONS.
    ------------------------------------------------

 NO OUTPUT CONTROL FOR STRESS PERIOD   16   TIME STEP    2
 
 SOLVING FOR HEAD 
                                                   Max.-Head-Change                         Max.-Flux-Residual
  Residual-Control   Outer-Iter.   Inner-Iter.     Column Row Layer    Maximum-Head-Change  Column Row Layer    Maximum-Flux-Residual          L2-NORM 
          0                 1           2             2   13     1       0.1672264957E-01       2   13    1         0.9466321667E+00      0.1847314179E+01
          0                 2           2             2   13     1      -0.1549808009E-02       4   13    1        -0.9162880115E-01      0.1797350428E+00
          0                 3           1             4   13     1       0.1036961661E-03       4   13    1         0.6315834832E-02      0.1211387269E-01
          0                 4           1             4   13     1      -0.4025162658E-05       4   13    1        -0.2520789340E-03      0.4659172184E-03

    ------------------------------------------------
       NWT REQUIRED            4 OUTER ITERATIONS 
       AND A TOTAL OF          6 INNER ITERATIONS.
    ------------------------------------------------

 NO OUTPUT CONTROL FOR STRESS PERIOD   16   TIME STEP    3
 
 SOLVING FOR HEAD 
                                                   Max.-Head-Change                         Max.-Flux-Residual
  Residual-Control   Outer-Iter.   Inner-Iter.     Column Row Layer    Maximum-Head-Change  Column Row Layer    Maximum-Flux-Residual          L2-NORM 
          0                 1           2             2   13     1       0.1539911419E-01       2   13    1         0.8716191466E+00      0.1720030725E+01
          0                 2           2             2   13     1      -0.1428045707E-02       2   13    1        -0.8308791833E-01      0.1675311146E+00
          0                 3           1             4   13     1       0.9362542111E-04       4   13    1         0.5698686779E-02      0.1130562510E-01

    ------------------------------------------------
       NWT REQUIRED            3 OUTER ITERATIONS 
       AND A TOTAL OF          5 INNER ITERATIONS.
    ------------------------------------------------

 NO OUTPUT CONTROL FOR STRESS PERIOD   16   TIME STEP    4
 
 SOLVING FOR HEAD 
                                                   Max.-Head-Change                         Max.-Flux-Residual
  Residual-Control   Outer-Iter.   Inner-Iter.     Column Row Layer    Maximum-Head-Change  Column Row Layer    Maximum-Flux-Residual          L2-NORM 
          0                 1           2             2   13     1       0.1418084972E-01       2   13    1         0.8025764261E+00      0.1605396870E+01
          0                 2           2             2   13     1      -0.1315802712E-02       2   13    1        -0.7654905295E-01      0.1564594843E+00
          0                 3           1             4   13     1       0.8426641692E-04       4   13    1         0.5125351944E-02      0.1056168821E-01

    ------------------------------------------------
       NWT REQUIRED            3 OUTER ITERATIONS 
       AND A TOTAL OF          5 INNER ITERATIONS.
    ------------------------------------------------

 NO OUTPUT CONTROL FOR STRESS PERIOD   16   TIME STEP    5
 
 SOLVING FOR HEAD 
                                                   Max.-Head-Change                         Max.-Flux-Residual
  Residual-Control   Outer-Iter.   Inner-Iter.     Column Row Layer    Maximum-Head-Change  Column Row Layer    Maximum-Flux-Residual          L2-NORM 
          0                 1           2             2   13     1       0.1305979973E-01       2   13    1         0.7390446956E+00      0.1502241665E+01
          0                 2           2             2   13     1      -0.1212450709E-02       2   13    1        -0.7052780804E-01      0.1466198944E+00
          0                 3           1             2   13     1       0.7721897135E-04       4   13    1         0.4657502233E-02      0.9920642534E-02

    ------------------------------------------------
       NWT REQUIRED            3 OUTER ITERATIONS 
       AND A TOTAL OF          5 INNER ITERATIONS.
    ------------------------------------------------

 NO OUTPUT CONTROL FOR STRESS PERIOD   16   TIME STEP    6
 
 SOLVING FOR HEAD 
                                                   Max.-Head-Change                         Max.-Flux-Residual
  Residual-Control   Outer-Iter.   Inner-Iter.     Column Row Layer    Maximum-Head-Change  Column Row Layer    Maximum-Flux-Residual          L2-NORM 
          0                 1           2             2   13     1       0.1202826103E-01       2   13    1         0.6805879171E+00      0.1409458971E+01
          0                 2           2             2   13     1      -0.1117247285E-02       2   13    1        -0.6498155816E-01      0.1376336400E+00
          0                 3           1             2   13     1       0.7119742926E-04       2   13    1         0.4255903948E-02      0.9325282694E-02

    ------------------------------------------------
       NWT REQUIRED            3 OUTER ITERATIONS 
       AND A TOTAL OF          5 INNER ITERATIONS.
    ------------------------------------------------

 NO OUTPUT CONTROL FOR STRESS PERIOD   16   TIME STEP    7
 
 SOLVING FOR HEAD 
                                                   Max.-Head-Change                         Max.-Flux-Residual
  Residual-Control   Outer-Iter.   Inner-Iter.     Column Row Layer    Maximum-Head-Change  Column Row Layer    Maximum-Flux-Residual          L2-NORM 
          0                 1           2             2   13     1       0.1107915569E-01       2   13    1         0.6268049384E+00      0.1326123218E+01
          0                 2           2             2   13     1      -0.1029558753E-02       2   13    1        -0.5987335451E-01      0.1296333760E+00
          0                 3           1             2   13     1       0.6566874365E-04       2   13    1         0.3924877474E-02      0.8796836877E-02

    ------------------------------------------------
       NWT REQUIRED            3 OUTER ITERATIONS 
       AND A TOTAL OF          5 INNER ITERATIONS.
    ------------------------------------------------

 NO OUTPUT CONTROL FOR STRESS PERIOD   16   TIME STEP    8
 
 SOLVING FOR HEAD 
                                                   Max.-Head-Change                         Max.-Flux-Residual
  Residual-Control   Outer-Iter.   Inner-Iter.     Column Row Layer    Maximum-Head-Change  Column Row Layer    Maximum-Flux-Residual          L2-NORM 
          0                 1           2             2   13     1       0.1020592840E-01       2   13    1         0.5773241797E+00      0.1251319280E+01
          0                 2           2             2   13     1      -0.9488266871E-03       2   13    1        -0.5517064799E-01      0.1224583229E+00
          0                 3           1             2   13     1       0.6055038014E-04       2   13    1         0.3618425735E-02      0.8322900478E-02

    ------------------------------------------------
       NWT REQUIRED            3 OUTER ITERATIONS 
       AND A TOTAL OF          5 INNER ITERATIONS.
    ------------------------------------------------

 NO OUTPUT CONTROL FOR STRESS PERIOD   16   TIME STEP    9
 
 SOLVING FOR HEAD 
                                                   Max.-Head-Change                         Max.-Flux-Residual
  Residual-Control   Outer-Iter.   Inner-Iter.     Column Row Layer    Maximum-Head-Change  Column Row Layer    Maximum-Flux-Residual          L2-NORM 
          0                 1           2             2   13     1       0.9402432416E-02       2   13    1         0.5317970822E+00      0.1184219318E+01
          0                 2           2             2   13     1      -0.8744522438E-03       2   13    1        -0.5083853243E-01      0.1160245276E+00
          0                 3           1             2   13     1       0.5585413323E-04       2   13    1         0.3337282621E-02      0.7898831940E-02

    ------------------------------------------------
       NWT REQUIRED            3 OUTER ITERATIONS 
       AND A TOTAL OF          5 INNER ITERATIONS.
    ------------------------------------------------

 NO OUTPUT CONTROL FOR STRESS PERIOD   16   TIME STEP   10
 
 SOLVING FOR HEAD 
                                                   Max.-Head-Change                         Max.-Flux-Residual
  Residual-Control   Outer-Iter.   Inner-Iter.     Column Row Layer    Maximum-Head-Change  Column Row Layer    Maximum-Flux-Residual          L2-NORM 
          0                 1           2             2   13     1       0.8663261866E-02       2   13    1         0.4899172200E+00      0.1124077012E+01
          0                 2           2             2   13     1      -0.8059932021E-03       2   13    1        -0.4685122390E-01      0.1102624547E+00
          0                 3           1             2   13     1       0.5149648945E-04       2   13    1         0.3076391773E-02      0.7518837994E-02

    ------------------------------------------------
       NWT REQUIRED            3 OUTER ITERATIONS 
       AND A TOTAL OF          5 INNER ITERATIONS.
    ------------------------------------------------

 NO OUTPUT CONTROL FOR STRESS PERIOD   16   TIME STEP   11
 
 SOLVING FOR HEAD 
                                                   Max.-Head-Change                         Max.-Flux-Residual
  Residual-Control   Outer-Iter.   Inner-Iter.     Column Row Layer    Maximum-Head-Change  Column Row Layer    Maximum-Flux-Residual          L2-NORM 
          0                 1           2             2   13     1       0.7983212260E-02       2   13    1         0.4513894898E+00      0.1070187114E+01
          0                 2           2             2   13     1      -0.7429741499E-03       2   13    1        -0.4318100612E-01      0.1051034270E+00
          0                 3           1             2   13     1       0.4748180832E-04       2   13    1         0.2836060946E-02      0.7176169990E-02

    ------------------------------------------------
       NWT REQUIRED            3 OUTER ITERATIONS 
       AND A TOTAL OF          5 INNER ITERATIONS.
    ------------------------------------------------

 NO OUTPUT CONTROL FOR STRESS PERIOD   16   TIME STEP   12
 
 SOLVING FOR HEAD 
                                                   Max.-Head-Change                         Max.-Flux-Residual
  Residual-Control   Outer-Iter.   Inner-Iter.     Column Row Layer    Maximum-Head-Change  Column Row Layer    Maximum-Flux-Residual          L2-NORM 
          0                 1           2             2   13     1       0.7357470297E-02       2   13    1         0.4159409303E+00      0.1021921133E+01
          0                 2           2             2   13     1      -0.6849214429E-03       2   13    1        -0.3980028765E-01      0.1004829534E+00
          0                 3           1             2   13     1       0.4380134889E-04       2   13    1         0.2615771000E-02      0.6875208364E-02

    ------------------------------------------------
       NWT REQUIRED            3 OUTER ITERATIONS 
       AND A TOTAL OF          5 INNER ITERATIONS.
    ------------------------------------------------

 NO OUTPUT CONTROL FOR STRESS PERIOD   16   TIME STEP   13
 
 SOLVING FOR HEAD 
                                                   Max.-Head-Change                         Max.-Flux-Residual
  Residual-Control   Outer-Iter.   Inner-Iter.     Column Row Layer    Maximum-Head-Change  Column Row Layer    Maximum-Flux-Residual          L2-NORM 
          0                 1           2             2   13     1       0.6781798078E-02       2   13    1         0.3833312465E+00      0.9787074672E+00
          0                 2           2             2   13     1      -0.6314840334E-03       2   13    1        -0.3668858231E-01      0.9634873869E-01
          0                 3           1             2   13     1       0.4037861436E-04       2   13    1         0.2410915840E-02      0.6602203945E-02

    ------------------------------------------------
       NWT REQUIRED            3 OUTER ITERATIONS 
       AND A TOTAL OF          5 INNER ITERATIONS.
    ------------------------------------------------

 NO OUTPUT CONTROL FOR STRESS PERIOD   16   TIME STEP   14
 
 SOLVING FOR HEAD 
                                                   Max.-Head-Change                         Max.-Flux-Residual
  Residual-Control   Outer-Iter.   Inner-Iter.     Column Row Layer    Maximum-Head-Change  Column Row Layer    Maximum-Flux-Residual          L2-NORM 
          0                 1           2             1   13     1       0.6305516019E-02       2   13    1         0.3533278403E+00      0.9400164933E+00
          0                 2           2             1   13     1      -0.5924766553E-03       2   13    1        -0.3382264381E-01      0.9264727908E-01
          0                 3           1             2    2     1       0.3999030641E-04       2   13    1         0.2223585970E-02      0.6358282036E-02

    ------------------------------------------------
       NWT REQUIRED            3 OUTER ITERATIONS 
       AND A TOTAL OF          5 INNER ITERATIONS.
    ------------------------------------------------

 NO OUTPUT CONTROL FOR STRESS PERIOD   16   TIME STEP   15
 
 SOLVING FOR HEAD 
                                                   Max.-Head-Change                         Max.-Flux-Residual
  Residual-Control   Outer-Iter.   Inner-Iter.     Column Row Layer    Maximum-Head-Change  Column Row Layer    Maximum-Flux-Residual          L2-NORM 
          0                 1           2             1   13     1       0.6005806256E-02       1   13    1         0.3281051023E+00      0.9053777894E+00
          0                 2           2             2    2     1      -0.5835277870E-03       1   13    1        -0.3173174645E-01      0.8933557506E-01
          0                 3           1             2    2     1       0.3973606275E-04       2    2    1         0.2192631118E-02      0.6142037835E-02

    ------------------------------------------------
       NWT REQUIRED            3 OUTER ITERATIONS 
       AND A TOTAL OF          5 INNER ITERATIONS.
    ------------------------------------------------

 NO OUTPUT CONTROL FOR STRESS PERIOD   16   TIME STEP   16
 
 SOLVING FOR HEAD 
                                                   Max.-Head-Change                         Max.-Flux-Residual
  Residual-Control   Outer-Iter.   Inner-Iter.     Column Row Layer    Maximum-Head-Change  Column Row Layer    Maximum-Flux-Residual          L2-NORM 
          0                 1           2             2    2     1       0.5961028377E-02       1   13    1         0.3124763459E+00      0.8743560624E+00
          0                 2           2             2    2     1      -0.5798471419E-03       2    2    1        -0.3112429295E-01      0.8637055679E-01
          0                 3           1             2    2     1       0.3948542481E-04       2    2    1         0.2178700421E-02      0.5948272709E-02

    ------------------------------------------------
       NWT REQUIRED            3 OUTER ITERATIONS 
       AND A TOTAL OF          5 INNER ITERATIONS.
    ------------------------------------------------

 NO OUTPUT CONTROL FOR STRESS PERIOD   16   TIME STEP   17
 
 SOLVING FOR HEAD 
                                                   Max.-Head-Change                         Max.-Flux-Residual
  Residual-Control   Outer-Iter.   Inner-Iter.     Column Row Layer    Maximum-Head-Change  Column Row Layer    Maximum-Flux-Residual          L2-NORM 
          0                 1           2             2    2     1       0.5923638361E-02       2    2    1         0.3092754203E+00      0.8465590635E+00
          0                 2           2             2    2     1      -0.5762100848E-03       2    2    1        -0.3092764814E-01      0.8371017262E-01
          0                 3           1             2    2     1       0.3923775523E-04       2    2    1         0.2164935305E-02      0.5772893367E-02

    ------------------------------------------------
       NWT REQUIRED            3 OUTER ITERATIONS 
       AND A TOTAL OF          5 INNER ITERATIONS.
    ------------------------------------------------

 NO OUTPUT CONTROL FOR STRESS PERIOD   16   TIME STEP   18
 
 SOLVING FOR HEAD 
                                                   Max.-Head-Change                         Max.-Flux-Residual
  Residual-Control   Outer-Iter.   Inner-Iter.     Column Row Layer    Maximum-Head-Change  Column Row Layer    Maximum-Flux-Residual          L2-NORM 
          0                 1           2             2    2     1       0.5886776611E-02       2    2    1         0.3073367919E+00      0.8216400725E+00
          0                 2           2             2    2     1      -0.5726244144E-03       2    2    1        -0.3073378349E-01      0.8132822537E-01
          0                 3           1             2    2     1       0.3899358486E-04       2    2    1         0.2151364800E-02      0.5615512265E-02

    ------------------------------------------------
       NWT REQUIRED            3 OUTER ITERATIONS 
       AND A TOTAL OF          5 INNER ITERATIONS.
    ------------------------------------------------

 NO OUTPUT CONTROL FOR STRESS PERIOD   16   TIME STEP   19
 
 SOLVING FOR HEAD 
                                                   Max.-Head-Change                         Max.-Flux-Residual
  Residual-Control   Outer-Iter.   Inner-Iter.     Column Row Layer    Maximum-Head-Change  Column Row Layer    Maximum-Flux-Residual          L2-NORM 
          0                 1           2             2    2     1       0.5850434290E-02       2    2    1         0.3054255535E+00      0.7992772970E+00
          0                 2           2             2    2     1      -0.5690892702E-03       2    2    1        -0.3054265789E-01      0.7918809995E-01
          0                 3           1             2    2     1       0.3875285453E-04       2    2    1         0.2137985998E-02      0.5474456916E-02

    ------------------------------------------------
       NWT REQUIRED            3 OUTER ITERATIONS 
       AND A TOTAL OF          5 INNER ITERATIONS.
    ------------------------------------------------

 NO OUTPUT CONTROL FOR STRESS PERIOD   16   TIME STEP   20
 
 SOLVING FOR HEAD 
                                                   Max.-Head-Change                         Max.-Flux-Residual
  Residual-Control   Outer-Iter.   Inner-Iter.     Column Row Layer    Maximum-Head-Change  Column Row Layer    Maximum-Flux-Residual          L2-NORM 
          0                 1           2             2    2     1       0.5814603375E-02       2    2    1         0.3035412470E+00      0.7791785867E+00
          0                 2           2             2    2     1      -0.5656038737E-03       2    2    1        -0.3035422553E-01      0.7726363698E-01
          0                 3           1             2    2     1       0.3851551242E-04       2    2    1         0.2124795754E-02      0.5348379178E-02

    ------------------------------------------------
       NWT REQUIRED            3 OUTER ITERATIONS 
       AND A TOTAL OF          5 INNER ITERATIONS.
    ------------------------------------------------

 NO OUTPUT CONTROL FOR STRESS PERIOD   16   TIME STEP   21
 
 SOLVING FOR HEAD 
                                                   Max.-Head-Change                         Max.-Flux-Residual
  Residual-Control   Outer-Iter.   Inner-Iter.     Column Row Layer    Maximum-Head-Change  Column Row Layer    Maximum-Flux-Residual          L2-NORM 
          0                 1           2             2    2     1       0.5779188304E-02       2    2    1         0.3016788876E+00      0.7611009241E+00
          0                 2           2             2    2     1      -0.5621589276E-03       2    2    1        -0.3016798790E-01      0.7553256470E-01
          0                 3           1             2    2     1       0.3828092424E-04       2    2    1         0.2111759128E-02      0.5233701551E-02

    ------------------------------------------------
       NWT REQUIRED            3 OUTER ITERATIONS 
       AND A TOTAL OF          5 INNER ITERATIONS.
    ------------------------------------------------

 NO OUTPUT CONTROL FOR STRESS PERIOD   16   TIME STEP   22
 
 SOLVING FOR HEAD 
                                                   Max.-Head-Change                         Max.-Flux-Residual
  Residual-Control   Outer-Iter.   Inner-Iter.     Column Row Layer    Maximum-Head-Change  Column Row Layer    Maximum-Flux-Residual          L2-NORM 
          0                 1           2             2    2     1       0.5744269442E-02       2    2    1         0.2998426577E+00      0.7448082394E+00
          0                 2           2             2    2     1      -0.5587622494E-03       2    2    1        -0.2998436324E-01      0.7397045860E-01
          0                 3           1             2    2     1       0.3804962345E-04       2    2    1         0.2098905418E-02      0.5130947767E-02

    ------------------------------------------------
       NWT REQUIRED            3 OUTER ITERATIONS 
       AND A TOTAL OF          5 INNER ITERATIONS.
    ------------------------------------------------

 NO OUTPUT CONTROL FOR STRESS PERIOD   16   TIME STEP   23
 
 SOLVING FOR HEAD 
                                                   Max.-Head-Change                         Max.-Flux-Residual
  Residual-Control   Outer-Iter.   Inner-Iter.     Column Row Layer    Maximum-Head-Change  Column Row Layer    Maximum-Flux-Residual          L2-NORM 
          0                 1           2             2    2     1       0.5709839211E-02       2    2    1         0.2980321557E+00      0.7301054444E+00
          0                 2           2             2    2     1      -0.5554131020E-03       2    2    1        -0.2980331143E-01      0.7255659002E-01
          0                 3           1             2    2     1       0.3782155870E-04       2    2    1         0.2086231780E-02      0.5034602617E-02

    ------------------------------------------------
       NWT REQUIRED            3 OUTER ITERATIONS 
       AND A TOTAL OF          5 INNER ITERATIONS.
    ------------------------------------------------

 NO OUTPUT CONTROL FOR STRESS PERIOD   16   TIME STEP   24
 
 SOLVING FOR HEAD 
                                                   Max.-Head-Change                         Max.-Flux-Residual
  Residual-Control   Outer-Iter.   Inner-Iter.     Column Row Layer    Maximum-Head-Change  Column Row Layer    Maximum-Flux-Residual          L2-NORM 
          0                 1           2             2    2     1       0.5675802018E-02       2    2    1         0.2962424195E+00      0.7168081076E+00
          0                 2           2             2    2     1      -0.5521021876E-03       2    2    1        -0.2962433623E-01      0.7128229216E-01
          0                 3           1             2    2     1       0.3759609830E-04       2    2    1         0.2073703544E-02      0.4953481533E-02

    ------------------------------------------------
       NWT REQUIRED            3 OUTER ITERATIONS 
       AND A TOTAL OF          5 INNER ITERATIONS.
    ------------------------------------------------

 NO OUTPUT CONTROL FOR STRESS PERIOD   16   TIME STEP   25
 
 SOLVING FOR HEAD 
                                                   Max.-Head-Change                         Max.-Flux-Residual
  Residual-Control   Outer-Iter.   Inner-Iter.     Column Row Layer    Maximum-Head-Change  Column Row Layer    Maximum-Flux-Residual          L2-NORM 
          0                 1           2             2    2     1       0.5642326454E-02       2    2    1         0.2944822004E+00      0.7047548527E+00
          0                 2           2             2    2     1      -0.5488459044E-03       2    2    1        -0.2944831277E-01      0.7012308933E-01
          0                 3           1             2    2     1       0.3737435745E-04       2    2    1         0.2061381903E-02      0.4876066457E-02

    ------------------------------------------------
       NWT REQUIRED            3 OUTER ITERATIONS 
       AND A TOTAL OF          5 INNER ITERATIONS.
    ------------------------------------------------

 NO OUTPUT CONTROL FOR STRESS PERIOD   16   TIME STEP   26
 
 SOLVING FOR HEAD 
                                                   Max.-Head-Change                         Max.-Flux-Residual
  Residual-Control   Outer-Iter.   Inner-Iter.     Column Row Layer    Maximum-Head-Change  Column Row Layer    Maximum-Flux-Residual          L2-NORM 
          0                 1           2             2    2     1       0.5609229063E-02       2    2    1         0.2927419622E+00      0.6937998508E+00
          0                 2           2             2    2     1      -0.5456264081E-03       2    2    1        -0.2927428744E-01      0.6906825092E-01
          0                 3           1             2    2     1       0.3715512203E-04       2    2    1         0.2049200135E-02      0.4805986061E-02

    ------------------------------------------------
       NWT REQUIRED            3 OUTER ITERATIONS 
       AND A TOTAL OF          5 INNER ITERATIONS.
    ------------------------------------------------

 NO OUTPUT CONTROL FOR STRESS PERIOD   16   TIME STEP   27
 
 SOLVING FOR HEAD 
                                                   Max.-Head-Change                         Max.-Flux-Residual
  Residual-Control   Outer-Iter.   Inner-Iter.     Column Row Layer    Maximum-Head-Change  Column Row Layer    Maximum-Flux-Residual          L2-NORM 
          0                 1           2             2    2     1       0.5576503472E-02       2    2    1         0.2910213315E+00      0.6838289958E+00
          0                 2           2             2    2     1      -0.5424430778E-03       2    2    1        -0.2910222288E-01      0.6810754512E-01
          0                 3           1             2    2     1       0.3693834943E-04       2    2    1         0.2037155638E-02      0.4742443000E-02

    ------------------------------------------------
       NWT REQUIRED            3 OUTER ITERATIONS 
       AND A TOTAL OF          5 INNER ITERATIONS.
    ------------------------------------------------

 NO OUTPUT CONTROL FOR STRESS PERIOD   16   TIME STEP   28
 
 SOLVING FOR HEAD 
                                                   Max.-Head-Change                         Max.-Flux-Residual
  Residual-Control   Outer-Iter.   Inner-Iter.     Column Row Layer    Maximum-Head-Change  Column Row Layer    Maximum-Flux-Residual          L2-NORM 
          0                 1           2             2    2     1       0.5544318261E-02       2    2    1         0.2893291178E+00      0.6747238200E+00
          0                 2           2             2    2     1      -0.5393123125E-03       2    2    1        -0.2893300006E-01      0.6722853344E-01
          0                 3           1             2    2     1       0.3672515651E-04       2    2    1         0.2025310043E-02      0.4683831956E-02

    ------------------------------------------------
       NWT REQUIRED            3 OUTER ITERATIONS 
       AND A TOTAL OF          5 INNER ITERATIONS.
    ------------------------------------------------

 NO OUTPUT CONTROL FOR STRESS PERIOD   16   TIME STEP   29
 
 SOLVING FOR HEAD 
                                                   Max.-Head-Change                         Max.-Flux-Residual
  Residual-Control   Outer-Iter.   Inner-Iter.     Column Row Layer    Maximum-Head-Change  Column Row Layer    Maximum-Flux-Residual          L2-NORM 
          0                 1           2             2    2     1       0.4807865896E-02       2    2    1         0.2508189036E+00      0.5805281448E+00
          0                 2           2             2    2     1      -0.4676752278E-03       2    2    1        -0.2508195536E-01      0.5804176415E-01
          0                 3           1             2    2     1       0.3184694029E-04       2    2    1         0.1755737035E-02      0.4061784426E-02

    ------------------------------------------------
       NWT REQUIRED            3 OUTER ITERATIONS 
       AND A TOTAL OF          5 INNER ITERATIONS.
    ------------------------------------------------

 NO OUTPUT CONTROL FOR STRESS PERIOD   16   TIME STEP   30



 STREAM LISTING     PERIOD     16   STEP       30

 LAYER ROW COL. STREAM  RCH.  FLOW INTO     FLOW TO   FLOW OUT OF   OVRLND.     DIRECT     STREAM       STREAM     STREAM     STREAM   STREAMBED  STREAMBED
                SEG.NO.  NO.  STRM. RCH.    AQUIFER    STRM. RCH.    RUNOFF     PRECIP       ET          HEAD       DEPTH      WIDTH   CONDCTNC.   GRADIENT

   1    1    1     1     1    6.6341E+01  3.9373E-01   6.5947E+01  0.000E+00  0.000E+00  0.000E+00  1.09465E+03  1.601E+00  1.902E+01  8.558E-02  1.534E+00
   1    2    2     1     2    6.5947E+01  6.0983E-01   6.5338E+01  0.000E+00  0.000E+00  0.000E+00  1.08965E+03  1.595E+00  1.896E+01  1.327E-01  1.532E+00
   1    3    3     1     3    6.5338E+01  5.2015E-01   6.4817E+01  0.000E+00  0.000E+00  0.000E+00  1.08401E+03  1.588E+00  1.889E+01  1.134E-01  1.529E+00
   1    3    4     1     4    6.4817E+01  4.7905E-01   6.4338E+01  0.000E+00  0.000E+00  0.000E+00  1.07899E+03  1.582E+00  1.884E+01  1.045E-01  1.527E+00
   1    4    5     2     1    6.2338E+01  3.9665E-01   6.1942E+01  0.000E+00  0.000E+00  0.000E+00  1.07402E+03  2.085E+00  1.200E+01  7.800E-02  1.695E+00
   1    5    6     2     2    6.1942E+01  3.0469E-01   6.1637E+01  0.000E+00  0.000E+00  0.000E+00  1.06859E+03  2.078E+00  1.200E+01  6.000E-02  1.693E+00
   1    6    6     2     3    6.1637E+01  3.0432E-01   6.1333E+01  0.000E+00  0.000E+00  0.000E+00  1.06386E+03  2.072E+00  1.200E+01  6.000E-02  1.691E+00
   1    7    6     2     4    6.1333E+01  3.0396E-01   6.1029E+01  0.000E+00  0.000E+00  0.000E+00  1.05914E+03  2.066E+00  1.200E+01  6.000E-02  1.689E+00
   1    8    6     2     5    6.1029E+01  3.0359E-01   6.0725E+01  0.000E+00  0.000E+00  0.000E+00  1.05442E+03  2.060E+00  1.200E+01  6.000E-02  1.687E+00
   1    3    5     3     1    2.0000E+00  2.8252E-01   1.7175E+00  0.000E+00  0.000E+00  0.000E+00  1.07555E+03  1.909E+00  9.636E+00  7.227E-02  1.955E+00
   1    3    6     3     2    1.7175E+00  2.4905E-01   1.4684E+00  0.000E+00  0.000E+00  0.000E+00  1.07264E+03  1.727E+00  8.909E+00  6.682E-02  1.864E+00
   1    3    7     3     3    1.4684E+00  1.9718E-01   1.2712E+00  0.000E+00  0.000E+00  0.000E+00  1.06987E+03  1.555E+00  8.218E+00  5.547E-02  1.777E+00
   1    4    8     3     4    1.2712E+00  2.2567E-01   1.0456E+00  0.000E+00  0.000E+00  0.000E+00  1.06682E+03  1.364E+00  7.455E+00  6.709E-02  1.682E+00
   1    5    8     3     5    1.0456E+00  1.5790E-01   8.8768E-01  0.000E+00  0.000E+00  0.000E+00  1.06362E+03  1.164E+00  6.655E+00  4.991E-02  1.582E+00
   1    6    8     3     6    8.8768E-01  5.5980E-02   8.3170E-01  0.000E+00  0.000E+00  0.000E+00  1.06158E+03  1.036E+00  6.145E+00  1.844E-02  1.518E+00
   1    5   10     4     1    1.0000E+01  9.0919E-02   9.9091E+00  0.000E+00  0.000E+00  0.000E+00  1.07836E+03  6.368E-01  1.000E+01  2.500E-02  1.212E+00
   1    5    9     4     2    9.9091E+00  1.8158E-01   9.7275E+00  0.000E+00  0.000E+00  0.000E+00  1.07154E+03  6.315E-01  1.000E+01  5.000E-02  1.211E+00
   1    6    8     4     3    9.7275E+00  1.2689E-01   9.6006E+00  0.000E+00  0.000E+00  0.000E+00  1.06381E+03  6.256E-01  1.000E+01  3.500E-02  1.209E+00
   1    6    8     5     1    1.0432E+01  2.2686E-01   1.0205E+01  0.000E+00  0.000E+00  0.000E+00  1.05868E+03  6.790E-01  1.542E+01  6.166E-02  1.226E+00
   1    7    7     5     2    1.0205E+01  2.7894E-01   9.9265E+00  0.000E+00  0.000E+00  0.000E+00  1.05417E+03  6.732E-01  1.519E+01  7.594E-02  1.224E+00
   1    8    7     5     3    9.9265E+00  1.9221E-01   9.7343E+00  0.000E+00  0.000E+00  0.000E+00  1.04992E+03  6.676E-01  1.497E+01  5.241E-02  1.223E+00
   1    8    6     5     4    9.7343E+00  1.3577E-01   9.5985E+00  0.000E+00  0.000E+00  0.000E+00  1.04691E+03  6.637E-01  1.482E+01  3.706E-02  1.221E+00
   1    9    6     6     1    7.0324E+01  3.1608E-01   7.0008E+01  0.000E+00  0.000E+00  0.000E+00  1.04500E+03  2.268E+00  1.200E+01  6.000E-02  1.756E+00
   1   10    7     6     2    7.0008E+01  3.1571E-01   6.9692E+01  0.000E+00  0.000E+00  0.000E+00  1.04044E+03  2.262E+00  1.200E+01  6.000E-02  1.754E+00
   1   11    7     6     3    6.9692E+01  3.1534E-01   6.9377E+01  0.000E+00  0.000E+00  0.000E+00  1.03589E+03  2.256E+00  1.200E+01  6.000E-02  1.752E+00
   1   12    7     6     4    6.9377E+01  3.1498E-01   6.9062E+01  0.000E+00  0.000E+00  0.000E+00  1.03134E+03  2.250E+00  1.200E+01  6.000E-02  1.750E+00
   1   13    7     6     5    6.9062E+01  2.4695E-02   6.9037E+01  0.000E+00  0.000E+00  0.000E+00  1.02816E+03  2.246E+00  1.200E+01  2.400E-02  3.430E-01
   1   14    9     7     1    1.5000E+02  1.3365E+00   1.4866E+02  0.000E+00  0.000E+00  0.000E+00  1.03987E+03  2.288E+00  5.529E+01  5.593E-01  7.965E-01
   1   13    8     7     2    1.4866E+02  1.8261E+00   1.4684E+02  0.000E+00  0.000E+00  0.000E+00  1.03478E+03  2.279E+00  5.526E+01  6.148E-01  9.901E-01
   1   13    7     7     3    1.4684E+02  1.4316E+00   1.4541E+02  0.000E+00  0.000E+00  0.000E+00  1.02969E+03  2.271E+00  5.522E+01  5.585E-01  8.545E-01
   1   13    6     8     1    2.1444E+02  1.0590E+00   2.1338E+02  0.000E+00  0.000E+00  0.000E+00  1.02509E+03  3.218E+00  4.666E+01  4.755E-01  7.424E-01
   1   13    5     8     2    2.1338E+02  2.4016E-01   2.1314E+02  0.000E+00  0.000E+00  0.000E+00  1.01884E+03  3.214E+00  4.661E+01  4.749E-01  1.686E-01
   1   13    4     8     3    2.1314E+02 -2.4238E+00   2.1557E+02  0.000E+00  0.000E+00  0.000E+00  1.01260E+03  3.220E+00  4.670E+01  4.758E+00 -1.698E-01
   1   13    3     8     4    2.1557E+02 -3.6558E+00   2.1922E+02  0.000E+00  0.000E+00  0.000E+00  1.00636E+03  3.237E+00  4.694E+01  4.784E+00 -2.547E-01
   1   13    2     8     5    2.1922E+02 -2.5621E+00   2.2179E+02  0.000E+00  0.000E+00  0.000E+00  1.00013E+03  3.255E+00  4.719E+01  4.809E+00 -1.776E-01
   1   13    1     8     6    2.2179E+02 -1.9013E+00   2.2369E+02  0.000E+00  0.000E+00  0.000E+00  9.95142E+02  3.267E+00  4.737E+01  2.896E+00 -2.188E-01
   1    8    6     9     1    0.0000E+00  0.0000E+00   0.0000E+00  0.000E+00  0.000E+00  0.000E+00  1.07875E+03  0.000E+00  4.000E+00  0.000E+00  1.000E+00
   1    8    5     9     2    0.0000E+00  0.0000E+00   0.0000E+00  0.000E+00  0.000E+00  0.000E+00  1.07825E+03  0.000E+00  4.000E+00  0.000E+00  1.000E+00





UNSATURATED ZONE PACKAGE VOLUMETRIC BUDGET FOR  TIME STEP    30 STRESS PERIOD   16
  ------------------------------------------------------------------------------



     CUMULATIVE VOLUMES      L**3       RATES FOR THIS TIME STEP      L**3/T
     ------------------                 ------------------------

           IN:                                      IN:
           ---                                      ---
        INFILTRATION =   477467391.5462          INFILTRATION =           0.8475

          OUT:                                     OUT:
          ----                                     ----
              UZF ET =   435955148.0691                UZF ET =           0.7500
        UZF RECHARGE =       73224.0000          UZF RECHARGE =       0.0000E+00

            IN - OUT =    41439019.4771              IN - OUT =       9.7500E-02

          STORAGE:                                 STORAGE:
          --------                                 --------
      STORAGE CHANGE =    41454619.6498        STORAGE CHANGE =       9.7500E-02

 PERCENT DISCREPANCY IS DIFFERENCE BETWEEN IN-OUT MINUS CHANGE IN STORAGE
 DIVIDED BY THE AVERAGE OF IN AND OUT TIMES 100

 PERCENT DISCREPANCY =          -0.00     PERCENT DISCREPANCY =           0.00






1
  VOLUMETRIC BUDGET FOR AGRICULTURAL FIELDS AT  END OF TIME STEP   30, STRESS PERIOD  16
  ------------------------------------------------------------------------------

     CUMULATIVE VOLUMES      L**3       RATES FOR THIS TIME STEP      L**3/T
     ------------------                 ------------------------

           IN:                                      IN:
           ---                                      ---
           AG WELLS      =    86996240.0000             AG WELLS      =           0.0000
      DIVERSION SEGMENTS =   356960448.0000        DIVERSION SEGMENTS =           0.0000
           GW IRRIGATION =           0.0000             GW IRRIGATION =           0.0000
           SW IRRIGATION =           0.0000             SW IRRIGATION =           0.0000
        SYSTEM LOSSES GW =           0.0000          SYSTEM LOSSES GW =           0.0000
        SYSTEM LOSSES SW =           0.0000          SYSTEM LOSSES SW =           0.0000

                TOTAL IN =   443956672.0000                  TOTAL IN =           0.0000

          OUT:                                     OUT:
          ----                                     ----
           AG WELLS      =           0.0000             AG WELLS      =           0.0000
      DIVERSION SEGMENTS =           0.0000        DIVERSION SEGMENTS =           0.0000
           GW IRRIGATION =    86996240.0000             GW IRRIGATION =           0.0000
           SW IRRIGATION =   356967584.0000             SW IRRIGATION =           0.0000
        SYSTEM LOSSES GW =           0.0000          SYSTEM LOSSES GW =           0.0000
        SYSTEM LOSSES SW =           0.0000          SYSTEM LOSSES SW =           0.0000

               TOTAL OUT =   443963840.0000                 TOTAL OUT =           0.0000

                IN - OUT =       -7168.0000                  IN - OUT =           0.0000

     PERCENT DISCREPANCY =          -0.00         PERCENT DISCREPANCY =           0.00



1
  VOLUMETRIC BUDGET FOR ENTIRE MODEL AT END OF TIME STEP   30, STRESS PERIOD  16
  ------------------------------------------------------------------------------

     CUMULATIVE VOLUMES      L**3       RATES FOR THIS TIME STEP      L**3/T
     ------------------                 ------------------------

           IN:                                      IN:
           ---                                      ---
             STORAGE     =   154136816.0000               STORAGE     =           0.6819
       CONSTANT HEAD     =           0.0000         CONSTANT HEAD     =           0.0000
     HEAD DEP BOUNDS     =    11297532.0000       HEAD DEP BOUNDS     =           0.2858
      STREAM LEAKAGE     =   473086816.0000        STREAM LEAKAGE     =          13.1976
        UZF RECHARGE     =       73223.9531          UZF RECHARGE     =           0.0000
               GW ET     =           0.0000                 GW ET     =           0.0000
     SURFACE LEAKAGE     =           0.0000       SURFACE LEAKAGE     =           0.0000
           AG WELLS      =           0.0000             AG WELLS      =           0.0000

                TOTAL IN =   638594368.0000                  TOTAL IN =          14.1653

          OUT:                                     OUT:
          ----                                     ----
             STORAGE     =   114627464.0000               STORAGE     =           3.3234
       CONSTANT HEAD     =           0.0000         CONSTANT HEAD     =           0.0000
     HEAD DEP BOUNDS     =    11494897.0000       HEAD DEP BOUNDS     =           0.2963
      STREAM LEAKAGE     =   423940864.0000        STREAM LEAKAGE     =          10.5429
        UZF RECHARGE     =           0.0000          UZF RECHARGE     =           0.0000
               GW ET     =     1540019.1250                 GW ET     =       3.4703E-03
     SURFACE LEAKAGE     =           0.0000       SURFACE LEAKAGE     =           0.0000
           AG WELLS      =    86996240.0000             AG WELLS      =           0.0000

               TOTAL OUT =   638599488.0000                 TOTAL OUT =          14.1661

                IN - OUT =       -5120.0000                  IN - OUT =      -7.5340E-04

     PERCENT DISCREPANCY =          -0.00         PERCENT DISCREPANCY =          -0.01






         TIME SUMMARY AT END OF TIME STEP   30 IN STRESS PERIOD   16
                    SECONDS     MINUTES      HOURS       DAYS        YEARS
                    -----------------------------------------------------------
   TIME STEP LENGTH  87667.      1461.1      24.352      1.0147     2.77799E-03
 STRESS PERIOD TIME 2.63000E+06  43833.      730.56      30.440     8.33397E-02
         TOTAL TIME 3.95364E+07 6.58940E+05  10982.      457.60      1.2528    
1
1
                            STRESS PERIOD NO.   17, LENGTH =   2630000.    
                            -----------------------------------------------

                              NUMBER OF TIME STEPS =    30

                               MULTIPLIER FOR DELT =     1.000

                            INITIAL TIME STEP SIZE =   87666.66    

 REUSING NON-PARAMETER GHB CELLS FROM LAST STRESS PERIOD

      2 GHB CELLS

 REUSING STREAM SEGMENT DATA FROM LAST STRESS PERIOD



            AREAL INFILTRATION RATE
 READING ON UNIT   19 WITH FORMAT: (FREE)              

            1           2           3           4           5           6           7           8           9          10
 ........................................................................................................................
   1   1.0000E-10  2.0000E-10   0.000       0.000       0.000       0.000       0.000       0.000       0.000       0.000    
   2   2.0000E-10  1.0000E-10  2.0000E-10   0.000       0.000      8.0000E-10  8.0000E-10  5.0000E-10   0.000       0.000    
   3    0.000      5.0000E-10  1.0000E-10  1.0000E-10  8.0000E-10  8.0000E-10  5.0000E-10  5.0000E-10   0.000       0.000    
   4   8.0000E-10  5.0000E-10  1.0000E-10  1.0000E-10  1.0000E-10  1.0000E-10  1.0000E-10  1.0000E-10  2.0000E-10   0.000    
   5   8.0000E-10  5.0000E-10  1.0000E-10  1.0000E-10  1.0000E-10  1.0000E-10  1.0000E-10  1.0000E-10  1.0000E-10  1.0000E-10
   6   8.0000E-10  5.0000E-10  5.0000E-10  2.0000E-10  2.0000E-10  1.0000E-10  1.0000E-10  1.0000E-10  1.0000E-10  5.0000E-10
   7   8.0000E-10  5.0000E-10  5.0000E-10  2.0000E-10  2.0000E-10  1.0000E-10  1.0000E-10  2.0000E-10  2.0000E-10   0.000    
   8    0.000      5.0000E-10  5.0000E-10  2.0000E-10  2.0000E-10  1.0000E-10  1.0000E-10  2.0000E-10  5.0000E-10   0.000    
   9    0.000      5.0000E-10  5.0000E-10  2.0000E-10  2.0000E-10  1.0000E-10  1.0000E-10  2.0000E-10  5.0000E-10   0.000    
  10    0.000      5.0000E-10  5.0000E-10  2.0000E-10  2.0000E-10  1.0000E-10  1.0000E-10  2.0000E-10  5.0000E-10  8.0000E-10
  11    0.000      1.0000E-10  1.0000E-10  1.0000E-10  1.0000E-10  1.0000E-10  1.0000E-10  2.0000E-10  5.0000E-10   0.000    
  12   1.0000E-10  1.0000E-10  1.0000E-10  1.0000E-10  1.0000E-10  1.0000E-10  1.0000E-10  1.0000E-10  2.0000E-10   0.000    
  13   1.0000E-10  1.0000E-10  2.0000E-10  2.0000E-10  2.0000E-10  2.0000E-10  2.0000E-10  1.0000E-10  1.0000E-10   0.000    
  14    0.000      2.0000E-10  5.0000E-10  5.0000E-10  5.0000E-10  5.0000E-10  5.0000E-10  2.0000E-10  1.0000E-10   0.000    
  15    0.000       0.000      8.0000E-10  8.0000E-10  8.0000E-10  8.0000E-10   0.000       0.000       0.000       0.000    

                  ET RATE =  2.500000E-08

 USING ET EXTINCTION DEPTH FROM PREVIOUS STRESS PERIOD. CURRENT PERIOD IS:      17

 USING EXTINCTION WATER CONTENT FROM PREVIOUS STRESS PERIOD. CURRENT PERIOD IS:      17

 USING AIR ENTRY PRESSURE FROM PREVIOUS STRESS PERIOD. CURRENT PERIOD IS:      17

 USING ROOT PRESSURE HEAD FROM PREVIOUS STRESS PERIOD. CURRENT PERIOD IS:      17

 USING ROOT ACTIVITY FROM PREVIOUS STRESS PERIOD. CURRENT PERIOD IS:      17

 PROCESSING AG STRESS PERIOD DATA

 READING AG STRESS PERIOD DATA

 READING IRRIGATION SEGMENT

 READING IRRIGATION WELL

 READING SUPPLEMENTAL WELL

 END PROCESSING AG STRESS PERIOD DATA OPTIONS
 
 SOLVING FOR HEAD 
                                                   Max.-Head-Change                         Max.-Flux-Residual
  Residual-Control   Outer-Iter.   Inner-Iter.     Column Row Layer    Maximum-Head-Change  Column Row Layer    Maximum-Flux-Residual          L2-NORM 
          0                 1           2             4   13     1      -0.8322139059E-02       4   13    1        -0.4905860513E+00      0.8906174593E+00
          0                 2           2             4    7     1      -0.1443164453E+01       4    7    1        -0.7750884355E+02      0.1898625970E+03
          0                 3           2             4    7     1       0.2399028175E+00       5    8    1         0.1328737530E+02      0.3247836068E+02
          0                 4           2             4    7     1      -0.9548306659E-02       5    7    1        -0.5432785185E+00      0.1327716089E+01
          0                 5           2             4    7     1       0.1177341751E-03       5    7    1         0.6884980769E-02      0.1683406937E-01
          0                 6           1             4    7     1       0.1731543802E-05       5    6    1         0.1012579876E-03      0.2475118799E-03

    ------------------------------------------------
       NWT REQUIRED            6 OUTER ITERATIONS 
       AND A TOTAL OF         11 INNER ITERATIONS.
    ------------------------------------------------

 NO OUTPUT CONTROL FOR STRESS PERIOD   17   TIME STEP    1
 
 SOLVING FOR HEAD 
                                                   Max.-Head-Change                         Max.-Flux-Residual
  Residual-Control   Outer-Iter.   Inner-Iter.     Column Row Layer    Maximum-Head-Change  Column Row Layer    Maximum-Flux-Residual          L2-NORM 
          0                 1           2             5    8     1       0.3814343482E-01       5    8    1         0.2097026821E+01      0.4452713485E+01
          0                 2           2             5    8     1      -0.3712455936E-02       5    8    1        -0.2098214326E+00      0.4886342074E+00
          0                 3           2             5    8     1       0.2548192711E-03       5    8    1         0.1480144612E-01      0.3439462603E-01
          0                 4           1             5    8     1      -0.1210029935E-04       5    8    1        -0.7193646625E-03      0.1611924614E-02

    ------------------------------------------------
       NWT REQUIRED            4 OUTER ITERATIONS 
       AND A TOTAL OF          7 INNER ITERATIONS.
    ------------------------------------------------

 NO OUTPUT CONTROL FOR STRESS PERIOD   17   TIME STEP    2
 
 SOLVING FOR HEAD 
                                                   Max.-Head-Change                         Max.-Flux-Residual
  Residual-Control   Outer-Iter.   Inner-Iter.     Column Row Layer    Maximum-Head-Change  Column Row Layer    Maximum-Flux-Residual          L2-NORM 
          0                 1           2             5    8     1       0.3608861879E-01       5    8    1         0.1982203055E+01      0.4234035719E+01
          0                 2           2             5    8     1      -0.3512570528E-02       5    8    1        -0.1983385057E+00      0.4235560906E+00
          0                 3           2             5    8     1       0.2412078864E-03       5    8    1         0.1399764611E-01      0.2986009556E-01
          0                 4           1             5    8     1      -0.1155868375E-04       5    8    1        -0.6864891845E-03      0.1447751008E-02

    ------------------------------------------------
       NWT REQUIRED            4 OUTER ITERATIONS 
       AND A TOTAL OF          7 INNER ITERATIONS.
    ------------------------------------------------

 NO OUTPUT CONTROL FOR STRESS PERIOD   17   TIME STEP    3
 
 SOLVING FOR HEAD 
                                                   Max.-Head-Change                         Max.-Flux-Residual
  Residual-Control   Outer-Iter.   Inner-Iter.     Column Row Layer    Maximum-Head-Change  Column Row Layer    Maximum-Flux-Residual          L2-NORM 
          0                 1           2             5    8     1       0.3417621900E-01       5    8    1         0.1875410340E+01      0.4036282702E+01
          0                 2           2             5    8     1      -0.3326539302E-02       5    8    1        -0.1876587517E+00      0.4037936355E+00
          0                 3           2             5    8     1       0.2285399111E-03       5    8    1         0.1325006759E-01      0.2848068207E-01
          0                 4           1             5    8     1      -0.1105460676E-04       5    8    1        -0.6559131534E-03      0.1394516464E-02

    ------------------------------------------------
       NWT REQUIRED            4 OUTER ITERATIONS 
       AND A TOTAL OF          7 INNER ITERATIONS.
    ------------------------------------------------

 NO OUTPUT CONTROL FOR STRESS PERIOD   17   TIME STEP    4
 
 SOLVING FOR HEAD 
                                                   Max.-Head-Change                         Max.-Flux-Residual
  Residual-Control   Outer-Iter.   Inner-Iter.     Column Row Layer    Maximum-Head-Change  Column Row Layer    Maximum-Flux-Residual          L2-NORM 
          0                 1           2             5    8     1       0.3239539354E-01       5    8    1         0.1776033290E+01      0.3852399184E+01
          0                 2           2             5    8     1      -0.3153307513E-02       5    8    1        -0.1777206235E+00      0.3854167315E+00
          0                 3           2             5    8     1       0.2167435218E-03       5    8    1         0.1255440230E-01      0.2719805730E-01
          0                 4           1             5    8     1      -0.1058521161E-04       5    8    1        -0.6274603925E-03      0.1345096272E-02

    ------------------------------------------------
       NWT REQUIRED            4 OUTER ITERATIONS 
       AND A TOTAL OF          7 INNER ITERATIONS.
    ------------------------------------------------

 NO OUTPUT CONTROL FOR STRESS PERIOD   17   TIME STEP    5
 
 SOLVING FOR HEAD 
                                                   Max.-Head-Change                         Max.-Flux-Residual
  Residual-Control   Outer-Iter.   Inner-Iter.     Column Row Layer    Maximum-Head-Change  Column Row Layer    Maximum-Flux-Residual          L2-NORM 
          0                 1           2             5    8     1       0.3073582821E-01       5    8    1         0.1683486087E+01      0.3681209618E+01
          0                 2           2             5    8     1      -0.2989799653E-02       5    8    1        -0.1683515285E+00      0.3680840244E+00
          0                 3           2             5    8     1       0.2035938647E-03       5    8    1         0.1178458446E-01      0.2576255077E-01
          0                 4           1             5    8     1      -0.8101192374E-05       5    8    1        -0.4819903006E-03      0.1053510315E-02

    ------------------------------------------------
       NWT REQUIRED            4 OUTER ITERATIONS 
       AND A TOTAL OF          7 INNER ITERATIONS.
    ------------------------------------------------

 NO OUTPUT CONTROL FOR STRESS PERIOD   17   TIME STEP    6
 
 SOLVING FOR HEAD 
                                                   Max.-Head-Change                         Max.-Flux-Residual
  Residual-Control   Outer-Iter.   Inner-Iter.     Column Row Layer    Maximum-Head-Change  Column Row Layer    Maximum-Flux-Residual          L2-NORM 
          0                 1           2             5    8     1       0.2918830249E-01       5    8    1         0.1597246151E+01      0.3521679949E+01
          0                 2           2             5    8     1      -0.2839263281E-02       5    8    1        -0.1597272266E+00      0.3521372122E+00
          0                 3           2             5    8     1       0.1933429416E-03       5    8    1         0.1118088616E-01      0.2464698143E-01
          0                 4           1             5    8     1      -0.7693298510E-05       5    8    1        -0.4572990017E-03      0.1007925019E-02

    ------------------------------------------------
       NWT REQUIRED            4 OUTER ITERATIONS 
       AND A TOTAL OF          7 INNER ITERATIONS.
    ------------------------------------------------

 NO OUTPUT CONTROL FOR STRESS PERIOD   17   TIME STEP    7
 
 SOLVING FOR HEAD 
                                                   Max.-Head-Change                         Max.-Flux-Residual
  Residual-Control   Outer-Iter.   Inner-Iter.     Column Row Layer    Maximum-Head-Change  Column Row Layer    Maximum-Flux-Residual          L2-NORM 
          0                 1           2             5    8     1       0.2774424176E-01       5    8    1         0.1516826822E+01      0.3372873643E+01
          0                 2           2             5    8     1      -0.2698792229E-02       5    8    1        -0.1516850488E+00      0.3372615623E+00
          0                 3           2             5    8     1       0.1837781774E-03       5    8    1         0.1061797883E-01      0.2360606571E-01
          0                 4           1             5    8     1      -0.7313078442E-05       5    8    1        -0.4342976340E-03      0.9653907633E-03

    ------------------------------------------------
       NWT REQUIRED            4 OUTER ITERATIONS 
       AND A TOTAL OF          7 INNER ITERATIONS.
    ------------------------------------------------

 NO OUTPUT CONTROL FOR STRESS PERIOD   17   TIME STEP    8
 
 SOLVING FOR HEAD 
                                                   Max.-Head-Change                         Max.-Flux-Residual
  Residual-Control   Outer-Iter.   Inner-Iter.     Column Row Layer    Maximum-Head-Change  Column Row Layer    Maximum-Flux-Residual          L2-NORM 
          0                 1           2             5    8     1       0.2639572536E-01       5    8    1         0.1441779919E+01      0.3233927823E+01
          0                 2           2             5    8     1      -0.2567613638E-02       5    8    1        -0.1441800441E+00      0.3233710727E+00
          0                 3           2             5    8     1       0.1748446834E-03       5    8    1         0.1009258804E-01      0.2263401613E-01
          0                 4           1             5    8     1      -0.6957235147E-05       5    8    1        -0.4127875202E-03      0.9255931442E-03

    ------------------------------------------------
       NWT REQUIRED            4 OUTER ITERATIONS 
       AND A TOTAL OF          7 INNER ITERATIONS.
    ------------------------------------------------

 NO OUTPUT CONTROL FOR STRESS PERIOD   17   TIME STEP    9
 
 SOLVING FOR HEAD 
                                                   Max.-Head-Change                         Max.-Flux-Residual
  Residual-Control   Outer-Iter.   Inner-Iter.     Column Row Layer    Maximum-Head-Change  Column Row Layer    Maximum-Flux-Residual          L2-NORM 
          0                 1           2             5    8     1       0.2513565067E-01       5    8    1         0.1371702665E+01      0.3104067765E+01
          0                 2           2             5    8     1      -0.1371402523E-01       5    8    1        -0.7571721002E+00      0.1792796358E+01
          0                 3           2             4    7     1       0.1210217244E-01       5    8    1         0.6730015818E+00      0.1643400804E+01
          0                 4           2             4    7     1      -0.4815569161E-03       5    8    1        -0.2752054005E-01      0.6720989299E-01
          0                 5           1             4    7     1       0.5935758900E-05       5    8    1         0.3482741952E-03      0.8520805248E-03

    ------------------------------------------------
       NWT REQUIRED            5 OUTER ITERATIONS 
       AND A TOTAL OF          9 INNER ITERATIONS.
    ------------------------------------------------

 NO OUTPUT CONTROL FOR STRESS PERIOD   17   TIME STEP   10
 
 SOLVING FOR HEAD 
                                                   Max.-Head-Change                         Max.-Flux-Residual
  Residual-Control   Outer-Iter.   Inner-Iter.     Column Row Layer    Maximum-Head-Change  Column Row Layer    Maximum-Flux-Residual          L2-NORM 
          0                 1           2             5    8     1       0.2395743808E-01       5    8    1         0.1306224898E+01      0.2981970788E+01
          0                 2           2             5    8     1      -0.2330428781E-02       5    8    1        -0.1306241215E+00      0.2981848890E+00
          0                 3           2             4    7     1      -0.1132072810E-01       4    7    1        -0.6077491487E+00      0.1488312338E+01
          0                 4           2             4    7     1       0.1186431942E-01       4    7    1         0.6546380369E+00      0.1603051382E+01
          0                 5           2             4    7     1      -0.4742153424E-03       4    7    1        -0.2689583080E-01      0.6587524546E-01
          0                 6           1             4    7     1       0.7807412285E-05       5    8    1         0.4551362281E-03      0.1114952946E-02

    ------------------------------------------------
       NWT REQUIRED            6 OUTER ITERATIONS 
       AND A TOTAL OF         11 INNER ITERATIONS.
    ------------------------------------------------

 NO OUTPUT CONTROL FOR STRESS PERIOD   17   TIME STEP   11
 
 SOLVING FOR HEAD 
                                                   Max.-Head-Change                         Max.-Flux-Residual
  Residual-Control   Outer-Iter.   Inner-Iter.     Column Row Layer    Maximum-Head-Change  Column Row Layer    Maximum-Flux-Residual          L2-NORM 
          0                 1           2             5    8     1       0.2285489538E-01       5    8    1         0.1244993568E+01      0.2867798904E+01
          0                 2           2             5    8     1      -0.2224416703E-02       5    8    1        -0.1245689131E+00      0.2869150926E+00
          0                 3           2             4    7     1      -0.1132433184E-01       4    7    1        -0.6079318540E+00      0.1489463959E+01
          0                 4           2             4    7     1       0.1187062880E-01       4    7    1         0.6549850814E+00      0.1603951102E+01
          0                 5           2             4    7     1      -0.4724563177E-03       4    7    1        -0.2679602444E-01      0.6563279119E-01
          0                 6           1             4    7     1       0.5829915196E-05       5    8    1         0.3398834974E-03      0.8326749887E-03

    ------------------------------------------------
       NWT REQUIRED            6 OUTER ITERATIONS 
       AND A TOTAL OF         11 INNER ITERATIONS.
    ------------------------------------------------

 NO OUTPUT CONTROL FOR STRESS PERIOD   17   TIME STEP   12
 
 SOLVING FOR HEAD 
                                                   Max.-Head-Change                         Max.-Flux-Residual
  Residual-Control   Outer-Iter.   Inner-Iter.     Column Row Layer    Maximum-Head-Change  Column Row Layer    Maximum-Flux-Residual          L2-NORM 
          0                 1           2             5    6     1       0.2184273549E-01       5    8    1         0.1187693417E+01      0.2760911350E+01
          0                 2           2             5    6     1      -0.2124697253E-02       5    8    1        -0.1187706487E+00      0.2760866849E+00
          0                 3           2             4    7     1      -0.1133525836E-01       4    7    1        -0.6085083052E+00      0.1491533528E+01
          0                 4           2             4    7     1       0.1188173715E-01       4    7    1         0.6555969985E+00      0.1605496226E+01
          0                 5           2             4    7     1      -0.4728977346E-03       4    7    1        -0.2682101835E-01      0.6569591216E-01
          0                 6           1             4    7     1       0.5835361631E-05       5    8    1         0.3402174393E-03      0.8334720344E-03

    ------------------------------------------------
       NWT REQUIRED            6 OUTER ITERATIONS 
       AND A TOTAL OF         11 INNER ITERATIONS.
    ------------------------------------------------

 NO OUTPUT CONTROL FOR STRESS PERIOD   17   TIME STEP   13
 
 SOLVING FOR HEAD 
                                                   Max.-Head-Change                         Max.-Flux-Residual
  Residual-Control   Outer-Iter.   Inner-Iter.     Column Row Layer    Maximum-Head-Change  Column Row Layer    Maximum-Flux-Residual          L2-NORM 
          0                 1           2             5    6     1       0.2090544590E-01       5    6    1         0.1135230090E+01      0.2660734133E+01
          0                 2           2             5    6     1      -0.2033524933E-02       5    6    1        -0.1135226737E+00      0.2660711983E+00
          0                 3           2             4    7     1      -0.1134153666E-01       4    7    1        -0.6088359221E+00      0.1492947432E+01
          0                 4           2             4    7     1       0.1188915757E-01       4    7    1         0.6560055081E+00      0.1606539886E+01
          0                 5           2             4    7     1      -0.4752032147E-03       4    7    1        -0.2695173420E-01      0.6601787486E-01
          0                 6           1             4    7     1       0.7819604541E-05       5    8    1         0.4558960748E-03      0.1116761041E-02

    ------------------------------------------------
       NWT REQUIRED            6 OUTER ITERATIONS 
       AND A TOTAL OF         11 INNER ITERATIONS.
    ------------------------------------------------

 NO OUTPUT CONTROL FOR STRESS PERIOD   17   TIME STEP   14
 
 SOLVING FOR HEAD 
                                                   Max.-Head-Change                         Max.-Flux-Residual
  Residual-Control   Outer-Iter.   Inner-Iter.     Column Row Layer    Maximum-Head-Change  Column Row Layer    Maximum-Flux-Residual          L2-NORM 
          0                 1           2             5    6     1       0.2002394442E-01       5    6    1         0.1086499939E+01      0.2566746839E+01
          0                 2           2             5    6     1      -0.1949017815E-02       5    6    1        -0.1087177861E+00      0.2568206778E+00
          0                 3           2             4    7     1      -0.1134341735E-01       4    7    1        -0.6089281247E+00      0.1493741206E+01
          0                 4           2             4    7     1       0.1189316320E-01       4    7    1         0.6562256761E+00      0.1607119193E+01
          0                 5           2             4    7     1      -0.4733531976E-03       4    7    1        -0.2684677695E-01      0.6576240862E-01
          0                 6           1             4    7     1       0.5840981916E-05       5    8    1         0.3405741238E-03      0.8343148540E-03

    ------------------------------------------------
       NWT REQUIRED            6 OUTER ITERATIONS 
       AND A TOTAL OF         11 INNER ITERATIONS.
    ------------------------------------------------

 NO OUTPUT CONTROL FOR STRESS PERIOD   17   TIME STEP   15
 
 SOLVING FOR HEAD 
                                                   Max.-Head-Change                         Max.-Flux-Residual
  Residual-Control   Outer-Iter.   Inner-Iter.     Column Row Layer    Maximum-Head-Change  Column Row Layer    Maximum-Flux-Residual          L2-NORM 
          0                 1           2             5    6     1       0.1919515479E-01       5    6    1         0.1040711928E+01      0.2478491318E+01
          0                 2           2             5    6     1      -0.1869234430E-02       5    6    1        -0.1041849153E+00      0.2480967167E+00
          0                 3           2             4    7     1      -0.1134634106E-01       4    7    1        -0.6090769094E+00      0.1494634065E+01
          0                 4           2             4    7     1       0.1189767613E-01       4    7    1         0.6564739056E+00      0.1607770965E+01
          0                 5           2             4    7     1      -0.4735328143E-03       5    8    1        -0.2685735123E-01      0.6578917830E-01
          0                 6           1             4    7     1       0.5843198486E-05       5    8    1         0.3407162317E-03      0.8346552596E-03

    ------------------------------------------------
       NWT REQUIRED            6 OUTER ITERATIONS 
       AND A TOTAL OF         11 INNER ITERATIONS.
    ------------------------------------------------

 NO OUTPUT CONTROL FOR STRESS PERIOD   17   TIME STEP   16
 
 SOLVING FOR HEAD 
                                                   Max.-Head-Change                         Max.-Flux-Residual
  Residual-Control   Outer-Iter.   Inner-Iter.     Column Row Layer    Maximum-Head-Change  Column Row Layer    Maximum-Flux-Residual          L2-NORM 
          0                 1           2             5    6     1       0.1841475594E-01       5    6    1         0.9976239104E+00      0.2395498398E+01
          0                 2           2             5    6     1      -0.1791653527E-02       5    6    1        -0.9978432919E-01      0.2395984936E+00
          0                 3           2             4    7     1      -0.1135639472E-01       4    7    1        -0.6096089673E+00      0.1496429135E+01
          0                 4           2             4    7     1       0.1190680184E-01       4    7    1         0.6569767180E+00      0.1609037109E+01
          0                 5           2             4    7     1      -0.4759061683E-03       5    8    1        -0.2699289878E-01      0.6612028830E-01
          0                 6           1             4    7     1       0.7447210906E-05       5    8    1         0.4342278601E-03      0.1063665945E-02

    ------------------------------------------------
       NWT REQUIRED            6 OUTER ITERATIONS 
       AND A TOTAL OF         11 INNER ITERATIONS.
    ------------------------------------------------

 NO OUTPUT CONTROL FOR STRESS PERIOD   17   TIME STEP   17
 
 SOLVING FOR HEAD 
                                                   Max.-Head-Change                         Max.-Flux-Residual
  Residual-Control   Outer-Iter.   Inner-Iter.     Column Row Layer    Maximum-Head-Change  Column Row Layer    Maximum-Flux-Residual          L2-NORM 
          0                 1           2             5    6     1       0.1767966791E-01       5    6    1         0.9570621933E+00      0.2317401132E+01
          0                 2           2             5    6     1      -0.1719746166E-02       5    6    1        -0.9570598446E-01      0.2317398896E+00
          0                 3           2             4    7     1      -0.1136210726E-01       4    7    1        -0.6099085488E+00      0.1497619222E+01
          0                 4           2             4    7     1       0.1191263265E-01       4    7    1         0.6572977920E+00      0.1609860584E+01
          0                 5           2             4    7     1      -0.4761382373E-03       5    8    1        -0.2700693019E-01      0.6615405761E-01
          0                 6           1             4    7     1       0.7831144640E-05       5    8    1         0.4566184532E-03      0.1118487107E-02

    ------------------------------------------------
       NWT REQUIRED            6 OUTER ITERATIONS 
       AND A TOTAL OF         11 INNER ITERATIONS.
    ------------------------------------------------

 NO OUTPUT CONTROL FOR STRESS PERIOD   17   TIME STEP   18
 
 SOLVING FOR HEAD 
                                                   Max.-Head-Change                         Max.-Flux-Residual
  Residual-Control   Outer-Iter.   Inner-Iter.     Column Row Layer    Maximum-Head-Change  Column Row Layer    Maximum-Flux-Residual          L2-NORM 
          0                 1           2             5    6     1       0.1698671218E-01       5    6    1         0.9188484123E+00      0.2243832940E+01
          0                 2           2             5    6     1      -0.1654414140E-02       5    6    1        -0.9199862903E-01      0.2246350559E+00
          0                 3           2             4    7     1      -0.1136034926E-01       4    7    1        -0.6098076497E+00      0.1497794147E+01
          0                 4           2             4    7     1       0.1191321120E-01       4    7    1         0.6573291239E+00      0.1609974136E+01
          0                 5           2             4    7     1      -0.4741504165E-03       5    8    1        -0.2689499157E-01      0.6587930801E-01
          0                 6           1             4    7     1       0.5849456141E-05       5    8    1         0.3411140669E-03      0.8355988551E-03

    ------------------------------------------------
       NWT REQUIRED            6 OUTER ITERATIONS 
       AND A TOTAL OF         11 INNER ITERATIONS.
    ------------------------------------------------

 NO OUTPUT CONTROL FOR STRESS PERIOD   17   TIME STEP   19
 
 SOLVING FOR HEAD 
                                                   Max.-Head-Change                         Max.-Flux-Residual
  Residual-Control   Outer-Iter.   Inner-Iter.     Column Row Layer    Maximum-Head-Change  Column Row Layer    Maximum-Flux-Residual          L2-NORM 
          0                 1           2             5    6     1       0.1633358413E-01       5    6    1         0.8828528984E+00      0.2174453575E+01
          0                 2           2             5    6     1      -0.1590882855E-02       5    6    1        -0.8839909571E-01      0.2176975466E+00
          0                 3           2             4    7     1      -0.1136459999E-01       4    7    1        -0.6100297578E+00      0.1498730064E+01
          0                 4           2             4    7     1       0.1191772382E-01       4    7    1         0.6575775799E+00      0.1610610243E+01
          0                 5           2             4    7     1      -0.4755316255E-03       5    8    1        -0.2697406475E-01      0.6607233667E-01
          0                 6           1             4    7     1       0.6655226196E-05       5    8    1         0.3880927613E-03      0.9506319283E-03

    ------------------------------------------------
       NWT REQUIRED            6 OUTER ITERATIONS 
       AND A TOTAL OF         11 INNER ITERATIONS.
    ------------------------------------------------

 NO OUTPUT CONTROL FOR STRESS PERIOD   17   TIME STEP   20
 
 SOLVING FOR HEAD 
                                                   Max.-Head-Change                         Max.-Flux-Residual
  Residual-Control   Outer-Iter.   Inner-Iter.     Column Row Layer    Maximum-Head-Change  Column Row Layer    Maximum-Flux-Residual          L2-NORM 
          0                 1           2             5    6     1       0.1571726817E-01       5    6    1         0.8489066006E+00      0.2108966325E+01
          0                 2           2             5    6     1      -0.1530097496E-02       5    6    1        -0.8495857827E-01      0.2110460792E+00
          0                 3           2             4    7     1      -0.1137092966E-01       4    7    1        -0.6103639048E+00      0.1499911847E+01
          0                 4           2             4    7     1       0.1192341004E-01       4    7    1         0.6578908420E+00      0.1611403099E+01
          0                 5           2             4    7     1      -0.4745563360E-03       5    8    1        -0.2691943442E-01      0.6593780901E-01
          0                 6           1             4    7     1       0.5855828500E-05       5    8    1         0.3415035078E-03      0.8365347497E-03

    ------------------------------------------------
       NWT REQUIRED            6 OUTER ITERATIONS 
       AND A TOTAL OF         11 INNER ITERATIONS.
    ------------------------------------------------

 NO OUTPUT CONTROL FOR STRESS PERIOD   17   TIME STEP   21
 
 SOLVING FOR HEAD 
                                                   Max.-Head-Change                         Max.-Flux-Residual
  Residual-Control   Outer-Iter.   Inner-Iter.     Column Row Layer    Maximum-Head-Change  Column Row Layer    Maximum-Flux-Residual          L2-NORM 
          0                 1           2             5    6     1       0.1513524464E-01       5    6    1         0.8168675792E+00      0.2047097814E+01
          0                 2           2             5    6     1      -0.1473482697E-02       5    6    1        -0.8175469113E-01      0.2048585358E+00
          0                 3           2             4    7     1      -0.1137472226E-01       4    7    1        -0.6105623031E+00      0.1500733567E+01
          0                 4           2             4    7     1       0.1192725449E-01       4    7    1         0.6581025311E+00      0.1611945145E+01
          0                 5           2             4    7     1      -0.4747100473E-03       5    8    1        -0.2692877909E-01      0.6596004077E-01
          0                 6           1             4    7     1       0.5857724929E-05       5    8    1         0.3416220138E-03      0.8368178013E-03

    ------------------------------------------------
       NWT REQUIRED            6 OUTER ITERATIONS 
       AND A TOTAL OF         11 INNER ITERATIONS.
    ------------------------------------------------

 NO OUTPUT CONTROL FOR STRESS PERIOD   17   TIME STEP   22
 
 SOLVING FOR HEAD 
                                                   Max.-Head-Change                         Max.-Flux-Residual
  Residual-Control   Outer-Iter.   Inner-Iter.     Column Row Layer    Maximum-Head-Change  Column Row Layer    Maximum-Flux-Residual          L2-NORM 
          0                 1           2             5    6     1       0.1458520696E-01       5    6    1         0.7866072911E+00      0.1988575245E+01
          0                 2           2             5    6     1      -0.1420814092E-02       5    6    1        -0.7877458010E-01      0.1991091614E+00
          0                 3           2             4    7     1      -0.1137601849E-01       4    7    1        -0.6106271115E+00      0.1501202054E+01
          0                 4           2             4    7     1       0.1192930317E-01       4    7    1         0.6582151824E+00      0.1612242844E+01
          0                 5           2             4    7     1      -0.4747915860E-03       5    8    1        -0.2693397890E-01      0.6597222249E-01
          0                 6           1             4    7     1       0.5858731279E-05       5    8    1         0.3416879499E-03      0.8370065008E-03

    ------------------------------------------------
       NWT REQUIRED            6 OUTER ITERATIONS 
       AND A TOTAL OF         11 INNER ITERATIONS.
    ------------------------------------------------

 NO OUTPUT CONTROL FOR STRESS PERIOD   17   TIME STEP   23
 
 SOLVING FOR HEAD 
                                                   Max.-Head-Change                         Max.-Flux-Residual
  Residual-Control   Outer-Iter.   Inner-Iter.     Column Row Layer    Maximum-Head-Change  Column Row Layer    Maximum-Flux-Residual          L2-NORM 
          0                 1           2             5    6     1       0.1406560517E-01       5    6    1         0.7580385704E+00      0.1933180106E+01
          0                 2           2             5    6     1      -0.1368197873E-02       5    6    1        -0.7580372124E-01      0.1933103269E+00
          0                 3           2             4    7     1      -0.1138527616E-01       4    7    1        -0.6111196303E+00      0.1502695894E+01
          0                 4           2             4    7     1       0.1193646150E-01       4    7    1         0.6586098065E+00      0.1613229571E+01
          0                 5           2             4    7     1      -0.4750757899E-03       5    8    1        -0.2695063078E-01      0.6601249183E-01
          0                 6           1             4    7     1       0.5862237824E-05       5    8    1         0.3418991489E-03      0.8374809239E-03

    ------------------------------------------------
       NWT REQUIRED            6 OUTER ITERATIONS 
       AND A TOTAL OF         11 INNER ITERATIONS.
    ------------------------------------------------

 NO OUTPUT CONTROL FOR STRESS PERIOD   17   TIME STEP   24
 
 SOLVING FOR HEAD 
                                                   Max.-Head-Change                         Max.-Flux-Residual
  Residual-Control   Outer-Iter.   Inner-Iter.     Column Row Layer    Maximum-Head-Change  Column Row Layer    Maximum-Flux-Residual          L2-NORM 
          0                 1           2             5    7     1       0.1376771083E-01       5    6    1         0.7310313605E+00      0.1880676091E+01
          0                 2           2             5    7     1      -0.1339222174E-02       5    6    1        -0.7310301171E-01      0.1880581547E+00
          0                 3           2             4    7     1      -0.1138856040E-01       4    7    1        -0.6112918784E+00      0.1503381849E+01
          0                 4           2             4    7     1       0.1193954055E-01       4    7    1         0.6587793923E+00      0.1613663488E+01
          0                 5           2             4    7     1      -0.4751983381E-03       5    8    1        -0.2695806824E-01      0.6603024383E-01
          0                 6           1             4    7     1       0.5862387029E-05       5    8    1         0.3419139939E-03      0.8375111999E-03

    ------------------------------------------------
       NWT REQUIRED            6 OUTER ITERATIONS 
       AND A TOTAL OF         11 INNER ITERATIONS.
    ------------------------------------------------

 NO OUTPUT CONTROL FOR STRESS PERIOD   17   TIME STEP   25
 
 SOLVING FOR HEAD 
                                                   Max.-Head-Change                         Max.-Flux-Residual
  Residual-Control   Outer-Iter.   Inner-Iter.     Column Row Layer    Maximum-Head-Change  Column Row Layer    Maximum-Flux-Residual          L2-NORM 
          0                 1           2             5    7     1       0.1348163424E-01       5    7    1         0.7155490156E+00      0.1830884259E+01
          0                 2           2             5    7     1      -0.1311394891E-02       5    7    1        -0.7155486304E-01      0.1830771175E+00
          0                 3           2             4    7     1      -0.1139173176E-01       4    7    1        -0.6114584092E+00      0.1504032912E+01
          0                 4           2             4    7     1       0.1194243558E-01       4    7    1         0.6589388623E+00      0.1614071150E+01
          0                 5           2             4    7     1      -0.4773237092E-03       5    8    1        -0.2707905367E-01      0.6632630073E-01
          0                 6           1             4    7     1       0.7845774585E-05       5    8    1         0.4575330420E-03      0.1120663949E-02

    ------------------------------------------------
       NWT REQUIRED            6 OUTER ITERATIONS 
       AND A TOTAL OF         11 INNER ITERATIONS.
    ------------------------------------------------

 NO OUTPUT CONTROL FOR STRESS PERIOD   17   TIME STEP   26
 
 SOLVING FOR HEAD 
                                                   Max.-Head-Change                         Max.-Flux-Residual
  Residual-Control   Outer-Iter.   Inner-Iter.     Column Row Layer    Maximum-Head-Change  Column Row Layer    Maximum-Flux-Residual          L2-NORM 
          0                 1           2             5    7     1       0.1320211088E-01       5    7    1         0.7006666077E+00      0.1783608790E+01
          0                 2           2             5    7     1      -0.1284205094E-02       5    7    1        -0.7006663667E-01      0.1783478099E+00
          0                 3           2             4    7     1      -0.1139472330E-01       4    7    1        -0.6116155992E+00      0.1504641790E+01
          0                 4           2             4    7     1       0.1194508480E-01       5    8    1         0.6590887399E+00      0.1614444336E+01
          0                 5           2             4    7     1      -0.4774291491E-03       5    8    1        -0.2708544347E-01      0.6634156014E-01
          0                 6           1             4    7     1       0.7847075537E-05       5    8    1         0.4576140625E-03      0.1120861723E-02

    ------------------------------------------------
       NWT REQUIRED            6 OUTER ITERATIONS 
       AND A TOTAL OF         11 INNER ITERATIONS.
    ------------------------------------------------

 NO OUTPUT CONTROL FOR STRESS PERIOD   17   TIME STEP   27
 
 SOLVING FOR HEAD 
                                                   Max.-Head-Change                         Max.-Flux-Residual
  Residual-Control   Outer-Iter.   Inner-Iter.     Column Row Layer    Maximum-Head-Change  Column Row Layer    Maximum-Flux-Residual          L2-NORM 
          0                 1           2             5    7     1       0.1292973661E-01       5    7    1         0.6861570156E+00      0.1738701600E+01
          0                 2           2             5    7     1      -0.1257710748E-02       5    7    1        -0.6861569360E-01      0.1738552116E+00
          0                 3           2             4    7     1      -0.1139762267E-01       5    8    1        -0.6118508859E+00      0.1505220903E+01
          0                 4           2             4    7     1       0.1194758566E-01       5    8    1         0.6592359222E+00      0.1614796252E+01
          0                 5           2             4    7     1      -0.4755192377E-03       5    8    1        -0.2697749989E-01      0.6607668452E-01
          0                 6           1             4    7     1       0.5867709799E-05       5    8    1         0.3422398631E-03      0.8382910952E-03

    ------------------------------------------------
       NWT REQUIRED            6 OUTER ITERATIONS 
       AND A TOTAL OF         11 INNER ITERATIONS.
    ------------------------------------------------

 NO OUTPUT CONTROL FOR STRESS PERIOD   17   TIME STEP   28
 
 SOLVING FOR HEAD 
                                                   Max.-Head-Change                         Max.-Flux-Residual
  Residual-Control   Outer-Iter.   Inner-Iter.     Column Row Layer    Maximum-Head-Change  Column Row Layer    Maximum-Flux-Residual          L2-NORM 
          0                 1           2             5    7     1       0.1266383660E-01       5    7    1         0.6719850035E+00      0.1695973609E+01
          0                 2           2             5    7     1      -0.1233101744E-02       5    7    1        -0.6726659855E-01      0.1697371848E+00
          0                 3           2             4    7     1      -0.1139720358E-01       5    8    1        -0.6119488463E+00      0.1505347140E+01
          0                 4           2             4    7     1       0.1194790216E-01       5    8    1         0.6592617905E+00      0.1614851821E+01
          0                 5           2             4    7     1      -0.4767327378E-03       5    8    1        -0.2704666431E-01      0.6624585775E-01
          0                 6           1             4    7     1       0.6670047464E-05       5    8    1         0.3890134192E-03      0.9528342540E-03

    ------------------------------------------------
       NWT REQUIRED            6 OUTER ITERATIONS 
       AND A TOTAL OF         11 INNER ITERATIONS.
    ------------------------------------------------

 NO OUTPUT CONTROL FOR STRESS PERIOD   17   TIME STEP   29
 
 SOLVING FOR HEAD 
                                                   Max.-Head-Change                         Max.-Flux-Residual
  Residual-Control   Outer-Iter.   Inner-Iter.     Column Row Layer    Maximum-Head-Change  Column Row Layer    Maximum-Flux-Residual          L2-NORM 
          0                 1           2             4    7     1       0.1245611107E-01       5    7    1         0.6581656289E+00      0.1653855363E+01
          0                 2           2             4    7     1      -0.1211640381E-02       5    7    1        -0.6581656560E-01      0.1653475205E+00
          0                 3           2             4    7     1      -0.1140328955E-01       5    8    1        -0.6123854432E+00      0.1506359960E+01
          0                 4           2             4    7     1       0.1195230524E-01       5    8    1         0.6595124507E+00      0.1615440180E+01
          0                 5           2             4    7     1      -0.4769079828E-03       5    8    1        -0.2705692087E-01      0.6626966708E-01
          0                 6           1             4    7     1       0.7053280875E-05       5    8    1         0.4113561927E-03      0.1007548391E-02

    ------------------------------------------------
       NWT REQUIRED            6 OUTER ITERATIONS 
       AND A TOTAL OF         11 INNER ITERATIONS.
    ------------------------------------------------

 NO OUTPUT CONTROL FOR STRESS PERIOD   17   TIME STEP   30



 STREAM LISTING     PERIOD     17   STEP       30

 LAYER ROW COL. STREAM  RCH.  FLOW INTO     FLOW TO   FLOW OUT OF   OVRLND.     DIRECT     STREAM       STREAM     STREAM     STREAM   STREAMBED  STREAMBED
                SEG.NO.  NO.  STRM. RCH.    AQUIFER    STRM. RCH.    RUNOFF     PRECIP       ET          HEAD       DEPTH      WIDTH   CONDCTNC.   GRADIENT

   1    1    1     1     1    4.9431E+01  3.3436E-01   4.9097E+01  0.000E+00  0.000E+00  0.000E+00  1.09444E+03  1.395E+00  1.690E+01  7.607E-02  1.465E+00
   1    2    2     1     2    4.9097E+01  5.1808E-01   4.8579E+01  0.000E+00  0.000E+00  0.000E+00  1.08945E+03  1.393E+00  1.685E+01  1.179E-01  1.464E+00
   1    3    3     1     3    4.8579E+01  4.4210E-01   4.8137E+01  0.000E+00  0.000E+00  0.000E+00  1.08381E+03  1.390E+00  1.679E+01  1.007E-01  1.463E+00
   1    3    4     1     4    4.8137E+01  4.0732E-01   4.7729E+01  0.000E+00  0.000E+00  0.000E+00  1.07879E+03  1.387E+00  1.673E+01  9.285E-02  1.462E+00
   1    4    5     2     1    4.5729E+01  3.6899E-01   4.5360E+01  0.000E+00  0.000E+00  0.000E+00  1.07366E+03  1.731E+00  1.200E+01  7.800E-02  1.577E+00
   1    5    6     2     2    4.5360E+01  2.8339E-01   4.5077E+01  0.000E+00  0.000E+00  0.000E+00  1.06823E+03  1.723E+00  1.200E+01  6.000E-02  1.574E+00
   1    6    6     2     3    4.5077E+01  2.8300E-01   4.4794E+01  0.000E+00  0.000E+00  0.000E+00  1.06351E+03  1.717E+00  1.200E+01  6.000E-02  1.572E+00
   1    7    6     2     4    4.4794E+01  2.8261E-01   4.4511E+01  0.000E+00  0.000E+00  0.000E+00  1.05879E+03  1.710E+00  1.200E+01  6.000E-02  1.570E+00
   1    8    6     2     5    4.4511E+01  2.8222E-01   4.4229E+01  0.000E+00  0.000E+00  0.000E+00  1.05406E+03  1.704E+00  1.200E+01  6.000E-02  1.568E+00
   1    3    5     3     1    2.0000E+00  2.8252E-01   1.7175E+00  0.000E+00  0.000E+00  0.000E+00  1.07555E+03  1.909E+00  9.636E+00  7.227E-02  1.955E+00
   1    3    6     3     2    1.7175E+00  2.4905E-01   1.4684E+00  0.000E+00  0.000E+00  0.000E+00  1.07264E+03  1.727E+00  8.909E+00  6.682E-02  1.864E+00
   1    3    7     3     3    1.4684E+00  1.9718E-01   1.2712E+00  0.000E+00  0.000E+00  0.000E+00  1.06987E+03  1.555E+00  8.218E+00  5.547E-02  1.777E+00
   1    4    8     3     4    1.2712E+00  2.2567E-01   1.0456E+00  0.000E+00  0.000E+00  0.000E+00  1.06682E+03  1.364E+00  7.455E+00  6.709E-02  1.682E+00
   1    5    8     3     5    1.0456E+00  1.5790E-01   8.8768E-01  0.000E+00  0.000E+00  0.000E+00  1.06362E+03  1.164E+00  6.655E+00  4.991E-02  1.582E+00
   1    6    8     3     6    8.8768E-01  5.5980E-02   8.3170E-01  0.000E+00  0.000E+00  0.000E+00  1.06158E+03  1.036E+00  6.145E+00  1.844E-02  1.518E+00
   1    5   10     4     1    1.0000E+01  9.0919E-02   9.9091E+00  0.000E+00  0.000E+00  0.000E+00  1.07836E+03  6.368E-01  1.000E+01  2.500E-02  1.212E+00
   1    5    9     4     2    9.9091E+00  1.8158E-01   9.7275E+00  0.000E+00  0.000E+00  0.000E+00  1.07154E+03  6.315E-01  1.000E+01  5.000E-02  1.211E+00
   1    6    8     4     3    9.7275E+00  1.2689E-01   9.6006E+00  0.000E+00  0.000E+00  0.000E+00  1.06381E+03  6.256E-01  1.000E+01  3.500E-02  1.209E+00
   1    6    8     5     1    1.0432E+01  2.2686E-01   1.0205E+01  0.000E+00  0.000E+00  0.000E+00  1.05868E+03  6.790E-01  1.542E+01  6.166E-02  1.226E+00
   1    7    7     5     2    1.0205E+01  2.7894E-01   9.9265E+00  0.000E+00  0.000E+00  0.000E+00  1.05417E+03  6.732E-01  1.519E+01  7.594E-02  1.224E+00
   1    8    7     5     3    9.9265E+00  1.9221E-01   9.7343E+00  0.000E+00  0.000E+00  0.000E+00  1.04992E+03  6.676E-01  1.497E+01  5.241E-02  1.223E+00
   1    8    6     5     4    9.7343E+00  1.3577E-01   9.5985E+00  0.000E+00  0.000E+00  0.000E+00  1.04691E+03  6.637E-01  1.482E+01  3.706E-02  1.221E+00
   1    9    6     6     1    5.0128E+01  2.9102E-01   4.9836E+01  0.000E+00  0.000E+00  0.000E+00  1.04458E+03  1.850E+00  1.200E+01  6.000E-02  1.617E+00
   1   10    7     6     2    4.9836E+01  2.9063E-01   4.9546E+01  0.000E+00  0.000E+00  0.000E+00  1.04003E+03  1.844E+00  1.200E+01  6.000E-02  1.615E+00
   1   11    7     6     3    4.9546E+01  2.9025E-01   4.9256E+01  0.000E+00  0.000E+00  0.000E+00  1.03547E+03  1.837E+00  1.200E+01  6.000E-02  1.612E+00
   1   12    7     6     4    4.9256E+01  2.8986E-01   4.8966E+01  0.000E+00  0.000E+00  0.000E+00  1.03092E+03  1.831E+00  1.200E+01  6.000E-02  1.610E+00
   1   13    7     6     5    4.8966E+01  1.4347E-02   4.8951E+01  0.000E+00  0.000E+00  0.000E+00  1.02774E+03  1.828E+00  1.200E+01  2.400E-02  1.993E-01
   1   14    9     7     1    1.5000E+02  1.3367E+00   1.4866E+02  0.000E+00  0.000E+00  0.000E+00  1.03987E+03  2.288E+00  5.529E+01  5.593E-01  7.966E-01
   1   13    8     7     2    1.4866E+02  1.8242E+00   1.4684E+02  0.000E+00  0.000E+00  0.000E+00  1.03478E+03  2.279E+00  5.526E+01  6.148E-01  9.891E-01
   1   13    7     7     3    1.4684E+02  1.4247E+00   1.4541E+02  0.000E+00  0.000E+00  0.000E+00  1.02969E+03  2.271E+00  5.522E+01  5.585E-01  8.504E-01
   1   13    6     8     1    1.9437E+02  9.6364E-01   1.9340E+02  0.000E+00  0.000E+00  0.000E+00  1.02498E+03  3.101E+00  4.497E+01  4.583E-01  7.009E-01
   1   13    5     8     2    1.9340E+02  1.7464E-01   1.9323E+02  0.000E+00  0.000E+00  0.000E+00  1.01872E+03  3.098E+00  4.492E+01  4.578E-01  1.272E-01
   1   13    4     8     3    1.9323E+02 -2.5693E+00   1.9580E+02  0.000E+00  0.000E+00  0.000E+00  1.01248E+03  3.105E+00  4.502E+01  4.588E+00 -1.867E-01
   1   13    3     8     4    1.9580E+02 -3.7368E+00   1.9953E+02  0.000E+00  0.000E+00  0.000E+00  1.00625E+03  3.124E+00  4.530E+01  4.616E+00 -2.698E-01
   1   13    2     8     5    1.9953E+02 -2.7025E+00   2.0224E+02  0.000E+00  0.000E+00  0.000E+00  1.00002E+03  3.143E+00  4.557E+01  4.644E+00 -1.940E-01
   1   13    1     8     6    2.0224E+02 -2.0652E+00   2.0430E+02  0.000E+00  0.000E+00  0.000E+00  9.95032E+02  3.157E+00  4.577E+01  2.799E+00 -2.460E-01
   1    8    6     9     1    3.7002E+00  0.0000E+00   3.7002E+00  0.000E+00  0.000E+00  0.000E+00  1.08000E+03  1.248E+00  4.000E+00  0.000E+00  1.416E+00
   1    8    5     9     2    3.7002E+00  0.0000E+00   3.7002E+00  0.000E+00  0.000E+00  0.000E+00  1.07950E+03  1.248E+00  4.000E+00  0.000E+00  1.416E+00





UNSATURATED ZONE PACKAGE VOLUMETRIC BUDGET FOR  TIME STEP    30 STRESS PERIOD   17
  ------------------------------------------------------------------------------



     CUMULATIVE VOLUMES      L**3       RATES FOR THIS TIME STEP      L**3/T
     ------------------                 ------------------------

           IN:                                      IN:
           ---                                      ---
        INFILTRATION =   527585749.7953          INFILTRATION =           4.5478

          OUT:                                     OUT:
          ----                                     ----
              UZF ET =   448662065.9177                UZF ET =           4.5675
        UZF RECHARGE =       73224.0000          UZF RECHARGE =       0.0000E+00

            IN - OUT =    78850459.8777              IN - OUT =      -1.9731E-02

          STORAGE:                                 STORAGE:
          --------                                 --------
      STORAGE CHANGE =    78886149.7028        STORAGE CHANGE =      -1.9731E-02

 PERCENT DISCREPANCY IS DIFFERENCE BETWEEN IN-OUT MINUS CHANGE IN STORAGE
 DIVIDED BY THE AVERAGE OF IN AND OUT TIMES 100

 PERCENT DISCREPANCY =          -0.00     PERCENT DISCREPANCY =           0.00






1
  VOLUMETRIC BUDGET FOR AGRICULTURAL FIELDS AT  END OF TIME STEP   30, STRESS PERIOD  17
  ------------------------------------------------------------------------------

     CUMULATIVE VOLUMES      L**3       RATES FOR THIS TIME STEP      L**3/T
     ------------------                 ------------------------

           IN:                                      IN:
           ---                                      ---
           AG WELLS      =   123629880.0000             AG WELLS      =           0.0000
      DIVERSION SEGMENTS =   368216320.0000        DIVERSION SEGMENTS =           3.7002
           GW IRRIGATION =           0.0000             GW IRRIGATION =           0.0000
           SW IRRIGATION =           0.0000             SW IRRIGATION =           0.0000
        SYSTEM LOSSES GW =           0.0000          SYSTEM LOSSES GW =           0.0000
        SYSTEM LOSSES SW =           0.0000          SYSTEM LOSSES SW =           0.0000

                TOTAL IN =   491846208.0000                  TOTAL IN =           3.7002

          OUT:                                     OUT:
          ----                                     ----
           AG WELLS      =           0.0000             AG WELLS      =           0.0000
      DIVERSION SEGMENTS =           0.0000        DIVERSION SEGMENTS =           0.0000
           GW IRRIGATION =   123629880.0000             GW IRRIGATION =           0.0000
           SW IRRIGATION =   368223616.0000             SW IRRIGATION =           3.7003
        SYSTEM LOSSES GW =           0.0000          SYSTEM LOSSES GW =           0.0000
        SYSTEM LOSSES SW =           0.0000          SYSTEM LOSSES SW =           0.0000

               TOTAL OUT =   491853504.0000                 TOTAL OUT =           3.7003

                IN - OUT =       -7296.0000                  IN - OUT =      -7.3910E-05

     PERCENT DISCREPANCY =          -0.00         PERCENT DISCREPANCY =          -0.00



1
  VOLUMETRIC BUDGET FOR ENTIRE MODEL AT END OF TIME STEP   30, STRESS PERIOD  17
  ------------------------------------------------------------------------------

     CUMULATIVE VOLUMES      L**3       RATES FOR THIS TIME STEP      L**3/T
     ------------------                 ------------------------

           IN:                                      IN:
           ---                                      ---
             STORAGE     =   203368992.0000               STORAGE     =           3.2617
       CONSTANT HEAD     =           0.0000         CONSTANT HEAD     =           0.0000
     HEAD DEP BOUNDS     =    12049212.0000       HEAD DEP BOUNDS     =           0.2858
      STREAM LEAKAGE     =   506621760.0000        STREAM LEAKAGE     =          12.5035
        UZF RECHARGE     =       73223.9531          UZF RECHARGE     =           0.0000
               GW ET     =           0.0000                 GW ET     =           0.0000
     SURFACE LEAKAGE     =           0.0000       SURFACE LEAKAGE     =           0.0000
           AG WELLS      =           0.0000             AG WELLS      =           0.0000

                TOTAL IN =   722113152.0000                  TOTAL IN =          16.0510

          OUT:                                     OUT:
          ----                                     ----
             STORAGE     =   131674344.0000               STORAGE     =           4.5597
       CONSTANT HEAD     =           0.0000         CONSTANT HEAD     =           0.0000
     HEAD DEP BOUNDS     =    12272425.0000       HEAD DEP BOUNDS     =           0.2953
      STREAM LEAKAGE     =   452578528.0000        STREAM LEAKAGE     =          11.0738
        UZF RECHARGE     =           0.0000          UZF RECHARGE     =           0.0000
               GW ET     =     1963076.8750                 GW ET     =           0.1223
     SURFACE LEAKAGE     =           0.0000       SURFACE LEAKAGE     =           0.0000
           AG WELLS      =   123629880.0000             AG WELLS      =           0.0000

               TOTAL OUT =   722118272.0000                 TOTAL OUT =          16.0510

                IN - OUT =       -5120.0000                  IN - OUT =       4.0054E-05

     PERCENT DISCREPANCY =          -0.00         PERCENT DISCREPANCY =           0.00






         TIME SUMMARY AT END OF TIME STEP   30 IN STRESS PERIOD   17
                    SECONDS     MINUTES      HOURS       DAYS        YEARS
                    -----------------------------------------------------------
   TIME STEP LENGTH  87667.      1461.1      24.352      1.0147     2.77799E-03
 STRESS PERIOD TIME 2.63000E+06  43833.      730.56      30.440     8.33397E-02
         TOTAL TIME 4.21664E+07 7.02774E+05  11713.      488.04      1.3362    
1
1
                            STRESS PERIOD NO.   18, LENGTH =   2630000.    
                            -----------------------------------------------

                              NUMBER OF TIME STEPS =    30

                               MULTIPLIER FOR DELT =     1.000

                            INITIAL TIME STEP SIZE =   87666.66    

 REUSING NON-PARAMETER GHB CELLS FROM LAST STRESS PERIOD

      2 GHB CELLS

 REUSING STREAM SEGMENT DATA FROM LAST STRESS PERIOD



            AREAL INFILTRATION RATE
 READING ON UNIT   19 WITH FORMAT: (FREE)              

            1           2           3           4           5           6           7           8           9          10
 ........................................................................................................................
   1   1.0000E-10  2.0000E-10   0.000       0.000       0.000       0.000       0.000       0.000       0.000       0.000    
   2   2.0000E-10  1.0000E-10  2.0000E-10   0.000       0.000      8.0000E-10  8.0000E-10  5.0000E-10   0.000       0.000    
   3    0.000      5.0000E-10  1.0000E-10  1.0000E-10  8.0000E-10  8.0000E-10  5.0000E-10  5.0000E-10   0.000       0.000    
   4   8.0000E-10  5.0000E-10  1.0000E-10  1.0000E-10  1.0000E-10  1.0000E-10  1.0000E-10  1.0000E-10  2.0000E-10   0.000    
   5   8.0000E-10  5.0000E-10  1.0000E-10  1.0000E-10  1.0000E-10  1.0000E-10  1.0000E-10  1.0000E-10  1.0000E-10  1.0000E-10
   6   8.0000E-10  5.0000E-10  5.0000E-10  2.0000E-10  2.0000E-10  1.0000E-10  1.0000E-10  1.0000E-10  1.0000E-10  5.0000E-10
   7   8.0000E-10  5.0000E-10  5.0000E-10  2.0000E-10  2.0000E-10  1.0000E-10  1.0000E-10  2.0000E-10  2.0000E-10   0.000    
   8    0.000      5.0000E-10  5.0000E-10  2.0000E-10  2.0000E-10  1.0000E-10  1.0000E-10  2.0000E-10  5.0000E-10   0.000    
   9    0.000      5.0000E-10  5.0000E-10  2.0000E-10  2.0000E-10  1.0000E-10  1.0000E-10  2.0000E-10  5.0000E-10   0.000    
  10    0.000      5.0000E-10  5.0000E-10  2.0000E-10  2.0000E-10  1.0000E-10  1.0000E-10  2.0000E-10  5.0000E-10  8.0000E-10
  11    0.000      1.0000E-10  1.0000E-10  1.0000E-10  1.0000E-10  1.0000E-10  1.0000E-10  2.0000E-10  5.0000E-10   0.000    
  12   1.0000E-10  1.0000E-10  1.0000E-10  1.0000E-10  1.0000E-10  1.0000E-10  1.0000E-10  1.0000E-10  2.0000E-10   0.000    
  13   1.0000E-10  1.0000E-10  2.0000E-10  2.0000E-10  2.0000E-10  2.0000E-10  2.0000E-10  1.0000E-10  1.0000E-10   0.000    
  14    0.000      2.0000E-10  5.0000E-10  5.0000E-10  5.0000E-10  5.0000E-10  5.0000E-10  2.0000E-10  1.0000E-10   0.000    
  15    0.000       0.000      8.0000E-10  8.0000E-10  8.0000E-10  8.0000E-10   0.000       0.000       0.000       0.000    

                  ET RATE =  5.000000E-08

 USING ET EXTINCTION DEPTH FROM PREVIOUS STRESS PERIOD. CURRENT PERIOD IS:      18

 USING EXTINCTION WATER CONTENT FROM PREVIOUS STRESS PERIOD. CURRENT PERIOD IS:      18

 USING AIR ENTRY PRESSURE FROM PREVIOUS STRESS PERIOD. CURRENT PERIOD IS:      18

 USING ROOT PRESSURE HEAD FROM PREVIOUS STRESS PERIOD. CURRENT PERIOD IS:      18

 USING ROOT ACTIVITY FROM PREVIOUS STRESS PERIOD. CURRENT PERIOD IS:      18

 PROCESSING AG STRESS PERIOD DATA

 READING AG STRESS PERIOD DATA

 READING IRRIGATION SEGMENT

 READING IRRIGATION WELL

 READING SUPPLEMENTAL WELL

 END PROCESSING AG STRESS PERIOD DATA OPTIONS
 
 SOLVING FOR HEAD 
                                                   Max.-Head-Change                         Max.-Flux-Residual
  Residual-Control   Outer-Iter.   Inner-Iter.     Column Row Layer    Maximum-Head-Change  Column Row Layer    Maximum-Flux-Residual          L2-NORM 
          0                 1           2             4    7     1       0.1235739205E-01       4    7    1         0.6472004442E+00      0.1701448070E+01
          0                 2           2             4    7     1      -0.9869950585E-02       4    7    1        -0.5299799630E+00      0.1293125607E+01
          0                 3           2             4    7     1       0.9104285647E-02       4    7    1         0.5023584584E+00      0.1230034066E+01
          0                 4           2             4    7     1      -0.3662874154E-03       4    7    1        -0.2077409931E-01      0.5086153266E-01
          0                 5           1             4    7     1       0.8426677610E-05       4    7    1         0.4911760773E-03      0.1203027791E-02

    ------------------------------------------------
       NWT REQUIRED            5 OUTER ITERATIONS 
       AND A TOTAL OF          9 INNER ITERATIONS.
    ------------------------------------------------

 NO OUTPUT CONTROL FOR STRESS PERIOD   18   TIME STEP    1
 
 SOLVING FOR HEAD 
                                                   Max.-Head-Change                         Max.-Flux-Residual
  Residual-Control   Outer-Iter.   Inner-Iter.     Column Row Layer    Maximum-Head-Change  Column Row Layer    Maximum-Flux-Residual          L2-NORM 
          0                 1           2             4    7     1       0.1225342970E-01       4    7    1         0.6420819674E+00      0.1582086635E+01
          0                 2           2             4    7     1      -0.1196173164E-02       4    7    1        -0.6443625256E-01      0.1586532134E+00
          0                 3           2             4    7     1      -0.3148463632E-02       5    8    1        -0.1694954703E+00      0.4166322814E+00
          0                 4           2             4    7     1       0.2940874434E-02       5    8    1         0.1623039968E+00      0.3975344299E+00
          0                 5           2             4    7     1       0.1195900909E-03       4    7    1         0.6598319961E-02      0.1630347799E-01
          0                 6           1             4    7     1       0.6649743324E-04       4    8    1         0.3669011671E-02      0.9083392399E-02

    ------------------------------------------------
       NWT REQUIRED            6 OUTER ITERATIONS 
       AND A TOTAL OF         11 INNER ITERATIONS.
    ------------------------------------------------

 NO OUTPUT CONTROL FOR STRESS PERIOD   18   TIME STEP    2
 
 SOLVING FOR HEAD 
                                                   Max.-Head-Change                         Max.-Flux-Residual
  Residual-Control   Outer-Iter.   Inner-Iter.     Column Row Layer    Maximum-Head-Change  Column Row Layer    Maximum-Flux-Residual          L2-NORM 
          0                 1           2             4    7     1       0.1214538493E-01       4    7    1         0.6367181933E+00      0.1543436862E+01
          0                 2           2             4    7     1      -0.2040061681E-01       4    7    1        -0.1095284156E+01      0.2681117081E+01
          0                 3           2             4    7     1       0.1144614649E-01       4    7    1         0.6315787913E+00      0.1548725199E+01
          0                 4           2             4    7     1       0.8171501902E-02       5    8    1         0.4509040047E+00      0.1104481126E+01
          0                 5           2             4    7     1      -0.3292505043E-03       4    7    1        -0.1867266906E-01      0.4574012919E-01
          0                 6           1             4    7     1       0.7973140261E-05       4    7    1         0.4647162173E-03      0.1138736025E-02

    ------------------------------------------------
       NWT REQUIRED            6 OUTER ITERATIONS 
       AND A TOTAL OF         11 INNER ITERATIONS.
    ------------------------------------------------

 NO OUTPUT CONTROL FOR STRESS PERIOD   18   TIME STEP    3
 
 SOLVING FOR HEAD 
                                                   Max.-Head-Change                         Max.-Flux-Residual
  Residual-Control   Outer-Iter.   Inner-Iter.     Column Row Layer    Maximum-Head-Change  Column Row Layer    Maximum-Flux-Residual          L2-NORM 
          0                 1           2             4    7     1       0.1203216988E-01       4    7    1         0.6310600332E+00      0.1503564052E+01
          0                 2           2             4    7     1      -0.1174650882E-02       4    7    1        -0.6333407761E-01      0.1508498521E+00
          0                 3           2             4    7     1      -0.2303719545E-01       5    8    1        -0.1237194061E+01      0.3043164161E+01
          0                 4           2             4    7     1       0.2406376619E-01       5    8    1         0.1327808801E+01      0.3252405490E+01
          0                 5           2             4    7     1      -0.9601508568E-03       5    8    1        -0.5447380329E-01      0.1334205556E+00
          0                 6           1             4    7     1       0.1418472710E-04       5    8    1         0.8272772675E-03      0.2026273506E-02

    ------------------------------------------------
       NWT REQUIRED            6 OUTER ITERATIONS 
       AND A TOTAL OF         11 INNER ITERATIONS.
    ------------------------------------------------

 NO OUTPUT CONTROL FOR STRESS PERIOD   18   TIME STEP    4
 
 SOLVING FOR HEAD 
                                                   Max.-Head-Change                         Max.-Flux-Residual
  Residual-Control   Outer-Iter.   Inner-Iter.     Column Row Layer    Maximum-Head-Change  Column Row Layer    Maximum-Flux-Residual          L2-NORM 
          0                 1           2             4    7     1       0.1191537519E-01       4    7    1         0.6251899766E+00      0.1467817582E+01
          0                 2           2             4    7     1      -0.1161579644E-02       4    7    1        -0.6265527139E-01      0.1470816152E+00
          0                 3           2             4    7     1      -0.2304593859E-01       5    8    1        -0.1237731877E+01      0.3044426998E+01
          0                 4           2             4    7     1       0.2407031299E-01       5    8    1         0.1328174955E+01      0.3253298150E+01
          0                 5           2             4    7     1      -0.9620299098E-03       5    8    1        -0.5458057727E-01      0.1336819331E+00
          0                 6           1             4    7     1       0.1578264003E-04       5    8    1         0.9204237297E-03      0.2254405780E-02

    ------------------------------------------------
       NWT REQUIRED            6 OUTER ITERATIONS 
       AND A TOTAL OF         11 INNER ITERATIONS.
    ------------------------------------------------

 NO OUTPUT CONTROL FOR STRESS PERIOD   18   TIME STEP    5
 
 SOLVING FOR HEAD 
                                                   Max.-Head-Change                         Max.-Flux-Residual
  Residual-Control   Outer-Iter.   Inner-Iter.     Column Row Layer    Maximum-Head-Change  Column Row Layer    Maximum-Flux-Residual          L2-NORM 
          0                 1           2             4    7     1       0.1179519990E-01       4    7    1         0.6191195090E+00      0.1434709428E+01
          0                 2           2             4    7     1      -0.1151600369E-02       4    7    1        -0.6214003940E-01      0.1439931181E+00
          0                 3           2             4    7     1      -0.2304343536E-01       5    8    1        -0.1237659353E+01      0.3044198271E+01
          0                 4           2             4    7     1       0.2406869170E-01       5    8    1         0.1328089964E+01      0.3253099379E+01
          0                 5           2             4    7     1      -0.9603468945E-03       5    8    1        -0.5448530655E-01      0.1334492084E+00
          0                 6           1             4    7     1       0.1418714597E-04       5    8    1         0.8274231704E-03      0.2026633715E-02

    ------------------------------------------------
       NWT REQUIRED            6 OUTER ITERATIONS 
       AND A TOTAL OF         11 INNER ITERATIONS.
    ------------------------------------------------

 NO OUTPUT CONTROL FOR STRESS PERIOD   18   TIME STEP    6
 
 SOLVING FOR HEAD 
                                                   Max.-Head-Change                         Max.-Flux-Residual
  Residual-Control   Outer-Iter.   Inner-Iter.     Column Row Layer    Maximum-Head-Change  Column Row Layer    Maximum-Flux-Residual          L2-NORM 
          0                 1           2             4    7     1       0.1167181999E-01       4    7    1         0.6128589578E+00      0.1403847269E+01
          0                 2           2             4    7     1      -0.1139598948E-02       4    7    1        -0.6151398995E-01      0.1409124528E+00
          0                 3           2             4    7     1      -0.2304538236E-01       5    8    1        -0.1237819317E+01      0.3044545437E+01
          0                 4           2             4    7     1       0.2406990109E-01       5    8    1         0.1328160730E+01      0.3253269346E+01
          0                 5           2             4    7     1      -0.9620135148E-03       5    8    1        -0.5457999232E-01      0.1336810502E+00
          0                 6           1             4    7     1       0.1578243661E-04       5    8    1         0.9204162607E-03      0.2254386444E-02

    ------------------------------------------------
       NWT REQUIRED            6 OUTER ITERATIONS 
       AND A TOTAL OF         11 INNER ITERATIONS.
    ------------------------------------------------

 NO OUTPUT CONTROL FOR STRESS PERIOD   18   TIME STEP    7
 
 SOLVING FOR HEAD 
                                                   Max.-Head-Change                         Max.-Flux-Residual
  Residual-Control   Outer-Iter.   Inner-Iter.     Column Row Layer    Maximum-Head-Change  Column Row Layer    Maximum-Flux-Residual          L2-NORM 
          0                 1           2             4    7     1       0.1154620603E-01       4    7    1         0.6064618331E+00      0.1374932051E+01
          0                 2           2             4    7     1      -0.1125669795E-02       4    7    1        -0.6078247411E-01      0.1378090673E+00
          0                 3           2             4    7     1      -0.2305165312E-01       5    8    1        -0.1238205659E+01      0.3045452896E+01
          0                 4           2             4    7     1       0.2407381594E-01       5    8    1         0.1328380386E+01      0.3253814324E+01
          0                 5           2             4    7     1      -0.9621693276E-03       5    8    1        -0.5458898016E-01      0.1337035235E+00
          0                 6           1             4    7     1       0.1578435880E-04       5    8    1         0.9205302742E-03      0.2254675032E-02

    ------------------------------------------------
       NWT REQUIRED            6 OUTER ITERATIONS 
       AND A TOTAL OF         11 INNER ITERATIONS.
    ------------------------------------------------

 NO OUTPUT CONTROL FOR STRESS PERIOD   18   TIME STEP    8
 
 SOLVING FOR HEAD 
                                                   Max.-Head-Change                         Max.-Flux-Residual
  Residual-Control   Outer-Iter.   Inner-Iter.     Column Row Layer    Maximum-Head-Change  Column Row Layer    Maximum-Flux-Residual          L2-NORM 
          0                 1           2             4    7     1       0.1141845241E-01       4    7    1         0.5999340819E+00      0.1347710440E+01
          0                 2           2             4    7     1      -0.1114953318E-02       4    7    1        -0.6022151127E-01      0.1352982954E+00
          0                 3           2             4    7     1      -0.2304914765E-01       5    8    1        -0.1238115567E+01      0.3045196780E+01
          0                 4           2             4    7     1       0.2407214212E-01       5    8    1         0.1328291311E+01      0.3253604568E+01
          0                 5           2             4    7     1      -0.9621027073E-03       5    8    1        -0.5458533370E-01      0.1336950748E+00
          0                 6           1             4    7     1       0.1578353593E-04       5    8    1         0.9204839967E-03      0.2254551433E-02

    ------------------------------------------------
       NWT REQUIRED            6 OUTER ITERATIONS 
       AND A TOTAL OF         11 INNER ITERATIONS.
    ------------------------------------------------

 NO OUTPUT CONTROL FOR STRESS PERIOD   18   TIME STEP    9
 
 SOLVING FOR HEAD 
                                                   Max.-Head-Change                         Max.-Flux-Residual
  Residual-Control   Outer-Iter.   Inner-Iter.     Column Row Layer    Maximum-Head-Change  Column Row Layer    Maximum-Flux-Residual          L2-NORM 
          0                 1           2             4    7     1       0.1128892042E-01       4    7    1         0.5932953904E+00      0.1321972511E+01
          0                 2           2             4    7     1      -0.1102353435E-02       4    7    1        -0.5955764554E-01      0.1327200881E+00
          0                 3           2             4    7     1      -0.2305101393E-01       5    8    1        -0.1238255075E+01      0.3045508461E+01
          0                 4           2             4    7     1       0.2407322674E-01       5    8    1         0.1328354093E+01      0.3253756053E+01
          0                 5           2             4    7     1      -0.9621458750E-03       5    8    1        -0.5458790191E-01      0.1337012740E+00
          0                 6           1             4    7     1       0.1578406778E-04       5    8    1         0.9205165666E-03      0.2254635754E-02

    ------------------------------------------------
       NWT REQUIRED            6 OUTER ITERATIONS 
       AND A TOTAL OF         11 INNER ITERATIONS.
    ------------------------------------------------

 NO OUTPUT CONTROL FOR STRESS PERIOD   18   TIME STEP   10
 
 SOLVING FOR HEAD 
                                                   Max.-Head-Change                         Max.-Flux-Residual
  Residual-Control   Outer-Iter.   Inner-Iter.     Column Row Layer    Maximum-Head-Change  Column Row Layer    Maximum-Flux-Residual          L2-NORM 
          0                 1           2             4    7     1       0.1115793672E-01       4    7    1         0.5865644911E+00      0.1297545672E+01
          0                 2           2             4    7     1      -0.1089612331E-02       4    7    1        -0.5888455839E-01      0.1302713104E+00
          0                 3           2             4    7     1      -0.2305286332E-01       5    8    1        -0.1238389231E+01      0.3045810726E+01
          0                 4           2             4    7     1       0.2407428416E-01       5    8    1         0.1328415073E+01      0.3253903398E+01
          0                 5           2             4    7     1      -0.9621879605E-03       5    8    1        -0.5459039636E-01      0.1337072943E+00
          0                 6           1             4    7     1       0.1578458664E-04       5    8    1         0.9205481858E-03      0.2254710022E-02

    ------------------------------------------------
       NWT REQUIRED            6 OUTER ITERATIONS 
       AND A TOTAL OF         11 INNER ITERATIONS.
    ------------------------------------------------

 NO OUTPUT CONTROL FOR STRESS PERIOD   18   TIME STEP   11
 
 SOLVING FOR HEAD 
                                                   Max.-Head-Change                         Max.-Flux-Residual
  Residual-Control   Outer-Iter.   Inner-Iter.     Column Row Layer    Maximum-Head-Change  Column Row Layer    Maximum-Flux-Residual          L2-NORM 
          0                 1           2             4    7     1       0.1102607494E-01       4    7    1         0.5797731059E+00      0.1274305345E+01
          0                 2           2             4    7     1      -0.1076785806E-02       4    7    1        -0.5820542213E-01      0.1279397756E+00
          0                 3           2             4    7     1      -0.2305469194E-01       5    8    1        -0.1238517939E+01      0.3046103697E+01
          0                 4           2             4    7     1       0.2407531413E-01       5    8    1         0.1328474242E+01      0.3254046608E+01
          0                 5           2             4    7     1      -0.9622289535E-03       5    8    1        -0.5459281676E-01      0.1337131564E+00
          0                 6           1             4    7     1       0.1578509161E-04       5    8    1         0.9205788851E-03      0.2254785196E-02

    ------------------------------------------------
       NWT REQUIRED            6 OUTER ITERATIONS 
       AND A TOTAL OF         11 INNER ITERATIONS.
    ------------------------------------------------

 NO OUTPUT CONTROL FOR STRESS PERIOD   18   TIME STEP   12
 
 SOLVING FOR HEAD 
                                                   Max.-Head-Change                         Max.-Flux-Residual
  Residual-Control   Outer-Iter.   Inner-Iter.     Column Row Layer    Maximum-Head-Change  Column Row Layer    Maximum-Flux-Residual          L2-NORM 
          0                 1           2             4    7     1       0.1089304976E-01       4    7    1         0.5729066227E+00      0.1252091333E+01
          0                 2           2             4    7     1      -0.1063846106E-02       4    7    1        -0.5751877553E-01      0.1257097014E+00
          0                 3           2             4    7     1      -0.2305650171E-01       5    8    1        -0.1238641776E+01      0.3046388045E+01
          0                 4           2             4    7     1       0.2407631679E-01       5    8    1         0.1328531641E+01      0.3254185715E+01
          0                 5           2             4    7     1      -0.9622688589E-03       5    8    1        -0.5459516483E-01      0.1337188444E+00
          0                 6           1             4    7     1       0.1578558314E-04       5    8    1         0.9206086802E-03      0.2254855169E-02

    ------------------------------------------------
       NWT REQUIRED            6 OUTER ITERATIONS 
       AND A TOTAL OF         11 INNER ITERATIONS.
    ------------------------------------------------

 NO OUTPUT CONTROL FOR STRESS PERIOD   18   TIME STEP   13
 
 SOLVING FOR HEAD 
                                                   Max.-Head-Change                         Max.-Flux-Residual
  Residual-Control   Outer-Iter.   Inner-Iter.     Column Row Layer    Maximum-Head-Change  Column Row Layer    Maximum-Flux-Residual          L2-NORM 
          0                 1           2             4    7     1       0.1075941365E-01       4    7    1         0.5659946020E+00      0.1230859212E+01
          0                 2           2             4    7     1      -0.1050846974E-02       4    7    1        -0.5682757475E-01      0.1235774033E+00
          0                 3           2             4    7     1      -0.2305829336E-01       5    8    1        -0.1238760967E+01      0.3046664051E+01
          0                 4           2             4    7     1       0.2407729653E-01       5    8    1         0.1328587524E+01      0.3254321341E+01
          0                 5           2             4    7     1      -0.9623078525E-03       5    8    1        -0.5459745092E-01      0.1337244000E+00
          0                 6           1             4    7     1       0.1578606368E-04       5    8    1         0.9206376585E-03      0.2254926193E-02

    ------------------------------------------------
       NWT REQUIRED            6 OUTER ITERATIONS 
       AND A TOTAL OF         11 INNER ITERATIONS.
    ------------------------------------------------

 NO OUTPUT CONTROL FOR STRESS PERIOD   18   TIME STEP   14
 
 SOLVING FOR HEAD 
                                                   Max.-Head-Change                         Max.-Flux-Residual
  Residual-Control   Outer-Iter.   Inner-Iter.     Column Row Layer    Maximum-Head-Change  Column Row Layer    Maximum-Flux-Residual          L2-NORM 
          0                 1           2             4    7     1       0.1062539615E-01       4    7    1         0.5590509045E+00      0.1210489427E+01
          0                 2           2             4    7     1      -0.1037810737E-02       4    7    1        -0.5613320588E-01      0.1215309099E+00
          0                 3           2             4    7     1      -0.2306006309E-01       5    8    1        -0.1238875598E+01      0.3046931655E+01
          0                 4           2             4    7     1       0.2407825093E-01       5    8    1         0.1328633266E+01      0.3254443382E+01
          0                 5           2             4    7     1      -0.9623458376E-03       5    8    1        -0.5459077982E-01      0.1337160758E+00
          0                 6           1             4    7     1       0.1578653169E-04       5    8    1         0.9204470102E-03      0.2254614759E-02

    ------------------------------------------------
       NWT REQUIRED            6 OUTER ITERATIONS 
       AND A TOTAL OF         11 INNER ITERATIONS.
    ------------------------------------------------

 NO OUTPUT CONTROL FOR STRESS PERIOD   18   TIME STEP   15
 
 SOLVING FOR HEAD 
                                                   Max.-Head-Change                         Max.-Flux-Residual
  Residual-Control   Outer-Iter.   Inner-Iter.     Column Row Layer    Maximum-Head-Change  Column Row Layer    Maximum-Flux-Residual          L2-NORM 
          0                 1           2             4    7     1       0.1049121132E-01       4    7    1         0.5520874315E+00      0.1190934481E+01
          0                 2           2             4    7     1      -0.1023047812E-02       4    7    1        -0.5534505092E-01      0.1193519428E+00
          0                 3           2             4    7     1      -0.2306609151E-01       5    8    1        -0.1239215703E+01      0.3047755529E+01
          0                 4           2             4    7     1       0.2408185676E-01       5    8    1         0.1328833613E+01      0.3254936583E+01
          0                 5           2             4    7     1      -0.9624893513E-03       5    8    1        -0.5459897685E-01      0.1337362745E+00
          0                 6           1             4    7     1       0.1578830176E-04       5    8    1         0.9205509746E-03      0.2254864929E-02

    ------------------------------------------------
       NWT REQUIRED            6 OUTER ITERATIONS 
       AND A TOTAL OF         11 INNER ITERATIONS.
    ------------------------------------------------

 NO OUTPUT CONTROL FOR STRESS PERIOD   18   TIME STEP   16
 
 SOLVING FOR HEAD 
                                                   Max.-Head-Change                         Max.-Flux-Residual
  Residual-Control   Outer-Iter.   Inner-Iter.     Column Row Layer    Maximum-Head-Change  Column Row Layer    Maximum-Flux-Residual          L2-NORM 
          0                 1           2             4    7     1       0.1035706023E-01       4    7    1         0.5451152822E+00      0.1172118669E+01
          0                 2           2             4    7     1      -0.1011708975E-02       4    7    1        -0.5473964433E-01      0.1176732235E+00
          0                 3           2             4    7     1      -0.2306352670E-01       5    8    1        -0.1239091811E+01      0.3047443595E+01
          0                 4           2             4    7     1       0.2408007879E-01       5    8    1         0.1328736712E+01      0.3254698550E+01
          0                 5           2             4    7     1      -0.9624185858E-03       5    8    1        -0.5459501125E-01      0.1337265492E+00
          0                 6           1             4    7     1       0.1578742804E-04       5    8    1         0.9205006427E-03      0.2254747294E-02

    ------------------------------------------------
       NWT REQUIRED            6 OUTER ITERATIONS 
       AND A TOTAL OF         11 INNER ITERATIONS.
    ------------------------------------------------

 NO OUTPUT CONTROL FOR STRESS PERIOD   18   TIME STEP   17
 
 SOLVING FOR HEAD 
                                                   Max.-Head-Change                         Max.-Flux-Residual
  Residual-Control   Outer-Iter.   Inner-Iter.     Column Row Layer    Maximum-Head-Change  Column Row Layer    Maximum-Flux-Residual          L2-NORM 
          0                 1           2             4    7     1       0.1022311895E-01       4    7    1         0.5381448810E+00      0.1153994469E+01
          0                 2           2             4    7     1      -0.9986801372E-03       4    7    1        -0.5404260414E-01      0.1158509296E+00
          0                 3           2             4    7     1      -0.2306523134E-01       5    8    1        -0.1239194448E+01      0.3047689404E+01
          0                 4           2             4    7     1       0.2408096595E-01       5    8    1         0.1328786682E+01      0.3254814152E+01
          0                 5           2             4    7     1      -0.9624538946E-03       5    8    1        -0.5459705531E-01      0.1337227389E+00
          0                 6           1             4    7     1       0.1578786266E-04       5    8    1         0.9205265605E-03      0.2254565956E-02

    ------------------------------------------------
       NWT REQUIRED            6 OUTER ITERATIONS 
       AND A TOTAL OF         11 INNER ITERATIONS.
    ------------------------------------------------

 NO OUTPUT CONTROL FOR STRESS PERIOD   18   TIME STEP   18
 
 SOLVING FOR HEAD 
                                                   Max.-Head-Change                         Max.-Flux-Residual
  Residual-Control   Outer-Iter.   Inner-Iter.     Column Row Layer    Maximum-Head-Change  Column Row Layer    Maximum-Flux-Residual          L2-NORM 
          0                 1           2             4    7     1       0.1008955806E-01       4    7    1         0.5311853575E+00      0.1136518106E+01
          0                 2           2             4    7     1      -0.9856882977E-03       4    7    1        -0.5334665144E-01      0.1140929245E+00
          0                 3           2             4    7     1      -0.2306691338E-01       5    8    1        -0.1239293455E+01      0.3047928264E+01
          0                 4           2             4    7     1       0.2408183209E-01       5    8    1         0.1328827788E+01      0.3254927368E+01
          0                 5           2             4    7     1      -0.9624883667E-03       5    8    1        -0.5459117933E-01      0.1337197380E+00
          0                 6           1             4    7     1       0.1578828765E-04       4    6    1         0.9203647126E-03      0.2254408794E-02

    ------------------------------------------------
       NWT REQUIRED            6 OUTER ITERATIONS 
       AND A TOTAL OF         11 INNER ITERATIONS.
    ------------------------------------------------

 NO OUTPUT CONTROL FOR STRESS PERIOD   18   TIME STEP   19
 
 SOLVING FOR HEAD 
                                                   Max.-Head-Change                         Max.-Flux-Residual
  Residual-Control   Outer-Iter.   Inner-Iter.     Column Row Layer    Maximum-Head-Change  Column Row Layer    Maximum-Flux-Residual          L2-NORM 
          0                 1           2             4    7     1       0.9956790928E-02       4    7    1         0.5242603437E+00      0.1119652127E+01
          0                 2           2             4    7     1      -0.9727736660E-03       4    7    1        -0.5265414950E-01      0.1123963772E+00
          0                 3           2             4    7     1      -0.2306857000E-01       5    8    1        -0.1239389091E+01      0.3048160756E+01
          0                 4           2             4    7     1       0.2408267704E-01       5    8    1         0.1328875133E+01      0.3255043100E+01
          0                 5           2             4    7     1      -0.9625219953E-03       5    8    1        -0.5459311633E-01      0.1337244807E+00
          0                 6           1             4    7     1       0.1578870143E-04       4    6    1         0.9203891586E-03      0.2254472681E-02

    ------------------------------------------------
       NWT REQUIRED            6 OUTER ITERATIONS 
       AND A TOTAL OF         11 INNER ITERATIONS.
    ------------------------------------------------

 NO OUTPUT CONTROL FOR STRESS PERIOD   18   TIME STEP   20
 
 SOLVING FOR HEAD 
                                                   Max.-Head-Change                         Max.-Flux-Residual
  Residual-Control   Outer-Iter.   Inner-Iter.     Column Row Layer    Maximum-Head-Change  Column Row Layer    Maximum-Flux-Residual          L2-NORM 
          0                 1           2             4    7     1       0.9824402610E-02       4    7    1         0.5173469104E+00      0.1103356344E+01
          0                 2           2             4    7     1      -0.9581854744E-03       4    7    1        -0.5187099720E-01      0.1105456517E+00
          0                 3           2             4    7     1      -0.2307443720E-01       5    8    1        -0.1239708482E+01      0.3048943564E+01
          0                 4           2             4    7     1       0.2408612695E-01       5    8    1         0.1329066055E+01      0.3255510666E+01
          0                 5           2             4    7     1      -0.9626593031E-03       5    8    1        -0.5460092723E-01      0.1337435969E+00
          0                 6           1             4    7     1       0.1579039489E-04       4    6    1         0.9204881733E-03      0.2254713377E-02

    ------------------------------------------------
       NWT REQUIRED            6 OUTER ITERATIONS 
       AND A TOTAL OF         11 INNER ITERATIONS.
    ------------------------------------------------

 NO OUTPUT CONTROL FOR STRESS PERIOD   18   TIME STEP   21
 
 SOLVING FOR HEAD 
                                                   Max.-Head-Change                         Max.-Flux-Residual
  Residual-Control   Outer-Iter.   Inner-Iter.     Column Row Layer    Maximum-Head-Change  Column Row Layer    Maximum-Flux-Residual          L2-NORM 
          0                 1           2             4    7     1       0.9692802301E-02       4    7    1         0.5104679047E+00      0.1087605150E+01
          0                 2           2             4    7     1      -0.9453843375E-03       4    7    1        -0.5118309566E-01      0.1089613716E+00
          0                 3           2             4    7     1      -0.2307603031E-01       5    8    1        -0.1239796714E+01      0.3049160915E+01
          0                 4           2             4    7     1       0.2408691352E-01       5    8    1         0.1329109902E+01      0.3255618059E+01
          0                 5           2             4    7     1      -0.9626906082E-03       5    8    1        -0.5460272109E-01      0.1337479945E+00
          0                 6           1             4    7     1       0.1579078022E-04       4    6    1         0.9205108818E-03      0.2254767741E-02

    ------------------------------------------------
       NWT REQUIRED            6 OUTER ITERATIONS 
       AND A TOTAL OF         11 INNER ITERATIONS.
    ------------------------------------------------

 NO OUTPUT CONTROL FOR STRESS PERIOD   18   TIME STEP   22
 
 SOLVING FOR HEAD 
                                                   Max.-Head-Change                         Max.-Flux-Residual
  Residual-Control   Outer-Iter.   Inner-Iter.     Column Row Layer    Maximum-Head-Change  Column Row Layer    Maximum-Flux-Residual          L2-NORM 
          0                 1           2             4    7     1       0.9562096959E-02       4    7    1         0.5036297561E+00      0.1072358991E+01
          0                 2           2             4    7     1      -0.9343806580E-03       4    7    1        -0.5059108785E-01      0.1076381298E+00
          0                 3           2             4    7     1      -0.2307338859E-01       5    8    1        -0.1239655825E+01      0.3048818488E+01
          0                 4           2             4    7     1       0.2408507830E-01       5    8    1         0.1329008963E+01      0.3255371164E+01
          0                 5           2             4    7     1      -0.9626175650E-03       5    8    1        -0.5459859151E-01      0.1337378978E+00
          0                 6           1             4    7     1       0.1578987850E-04       4    6    1         0.9204584808E-03      0.2254642221E-02

    ------------------------------------------------
       NWT REQUIRED            6 OUTER ITERATIONS 
       AND A TOTAL OF         11 INNER ITERATIONS.
    ------------------------------------------------

 NO OUTPUT CONTROL FOR STRESS PERIOD   18   TIME STEP   23
 
 SOLVING FOR HEAD 
                                                   Max.-Head-Change                         Max.-Flux-Residual
  Residual-Control   Outer-Iter.   Inner-Iter.     Column Row Layer    Maximum-Head-Change  Column Row Layer    Maximum-Flux-Residual          L2-NORM 
          0                 1           2             4    7     1       0.9432391968E-02       4    7    1         0.4968380100E+00      0.1057598767E+01
          0                 2           2             4    7     1      -0.9217638795E-03       4    7    1        -0.4991191202E-01      0.1061524425E+00
          0                 3           2             4    7     1      -0.2307495545E-01       5    8    1        -0.1239739403E+01      0.3049027172E+01
          0                 4           2             4    7     1       0.2408585010E-01       5    8    1         0.1329051769E+01      0.3255476211E+01
          0                 5           2             4    7     1      -0.9626482820E-03       5    8    1        -0.5460034276E-01      0.1337421810E+00
          0                 6           1             4    7     1       0.1579025621E-04       4    6    1         0.9204806704E-03      0.2254694740E-02

    ------------------------------------------------
       NWT REQUIRED            6 OUTER ITERATIONS 
       AND A TOTAL OF         11 INNER ITERATIONS.
    ------------------------------------------------

 NO OUTPUT CONTROL FOR STRESS PERIOD   18   TIME STEP   24
 
 SOLVING FOR HEAD 
                                                   Max.-Head-Change                         Max.-Flux-Residual
  Residual-Control   Outer-Iter.   Inner-Iter.     Column Row Layer    Maximum-Head-Change  Column Row Layer    Maximum-Flux-Residual          L2-NORM 
          0                 1           2             4    7     1       0.9304045178E-02       4    7    1         0.4901129195E+00      0.1043315958E+01
          0                 2           2             4    7     1      -0.9092792151E-03       4    7    1        -0.4923940162E-01      0.1047153913E+00
          0                 3           2             4    7     1      -0.2307649532E-01       5    8    1        -0.1239820104E+01      0.3049230085E+01
          0                 4           2             4    7     1       0.2408660280E-01       5    8    1         0.1329093420E+01      0.3255578525E+01
          0                 5           2             4    7     1      -0.9626782390E-03       5    8    1        -0.5460204676E-01      0.1337463813E+00
          0                 6           1             4    7     1       0.1579062497E-04       4    6    1         0.9205022941E-03      0.2254750846E-02

    ------------------------------------------------
       NWT REQUIRED            6 OUTER ITERATIONS 
       AND A TOTAL OF         11 INNER ITERATIONS.
    ------------------------------------------------

 NO OUTPUT CONTROL FOR STRESS PERIOD   18   TIME STEP   25
 
 SOLVING FOR HEAD 
                                                   Max.-Head-Change                         Max.-Flux-Residual
  Residual-Control   Outer-Iter.   Inner-Iter.     Column Row Layer    Maximum-Head-Change  Column Row Layer    Maximum-Flux-Residual          L2-NORM 
          0                 1           2             4    7     1       0.9176577427E-02       4    7    1         0.4834286722E+00      0.1029453319E+01
          0                 2           2             4    7     1      -0.8968800553E-03       4    7    1        -0.4857097541E-01      0.1033205285E+00
          0                 3           2             4    7     1      -0.2307801587E-01       5    8    1        -0.1239898386E+01      0.3049428137E+01
          0                 4           2             4    7     1       0.2408734121E-01       5    8    1         0.1329134186E+01      0.3255678755E+01
          0                 5           2             4    7     1      -0.9627076274E-03       5    8    1        -0.5460371459E-01      0.1337504808E+00
          0                 6           1             4    7     1       0.1579098723E-04       4    6    1         0.9205234767E-03      0.2254800775E-02

    ------------------------------------------------
       NWT REQUIRED            6 OUTER ITERATIONS 
       AND A TOTAL OF         11 INNER ITERATIONS.
    ------------------------------------------------

 NO OUTPUT CONTROL FOR STRESS PERIOD   18   TIME STEP   26
 
 SOLVING FOR HEAD 
                                                   Max.-Head-Change                         Max.-Flux-Residual
  Residual-Control   Outer-Iter.   Inner-Iter.     Column Row Layer    Maximum-Head-Change  Column Row Layer    Maximum-Flux-Residual          L2-NORM 
          0                 1           2             4    7     1       0.9050353855E-02       4    7    1         0.4768047906E+00      0.1016025555E+01
          0                 2           2             4    7     1      -0.8846019194E-03       4    7    1        -0.4790858571E-01      0.1019691510E+00
          0                 3           2             4    7     1      -0.2307951242E-01       5    8    1        -0.1239974223E+01      0.3049621209E+01
          0                 4           2             4    7     1       0.2408806287E-01       5    8    1         0.1329173947E+01      0.3255776585E+01
          0                 5           2             4    7     1      -0.9627363495E-03       5    8    1        -0.5460534125E-01      0.1337544711E+00
          0                 6           1             4    7     1       0.1579134098E-04       4    6    1         0.9205441627E-03      0.2254925283E-02

    ------------------------------------------------
       NWT REQUIRED            6 OUTER ITERATIONS 
       AND A TOTAL OF         11 INNER ITERATIONS.
    ------------------------------------------------

 NO OUTPUT CONTROL FOR STRESS PERIOD   18   TIME STEP   27
 
 SOLVING FOR HEAD 
                                                   Max.-Head-Change                         Max.-Flux-Residual
  Residual-Control   Outer-Iter.   Inner-Iter.     Column Row Layer    Maximum-Head-Change  Column Row Layer    Maximum-Flux-Residual          L2-NORM 
          0                 1           2             4    7     1       0.8925700606E-02       4    7    1         0.4702602077E+00      0.1002994514E+01
          0                 2           2             4    7     1      -0.8724765324E-03       4    7    1        -0.4725412583E-01      0.1006577034E+00
          0                 3           2             4    7     1      -0.2308098497E-01       5    8    1        -0.1240047818E+01      0.3049809548E+01
          0                 4           2             4    7     1       0.2408876997E-01       5    8    1         0.1329212836E+01      0.3255872343E+01
          0                 5           2             4    7     1      -0.9627644913E-03       5    8    1        -0.5460693222E-01      0.1337583951E+00
          0                 6           1             4    7     1       0.1579168733E-04       4    6    1         0.9205644060E-03      0.2254897756E-02

    ------------------------------------------------
       NWT REQUIRED            6 OUTER ITERATIONS 
       AND A TOTAL OF         11 INNER ITERATIONS.
    ------------------------------------------------

 NO OUTPUT CONTROL FOR STRESS PERIOD   18   TIME STEP   28
 
 SOLVING FOR HEAD 
                                                   Max.-Head-Change                         Max.-Flux-Residual
  Residual-Control   Outer-Iter.   Inner-Iter.     Column Row Layer    Maximum-Head-Change  Column Row Layer    Maximum-Flux-Residual          L2-NORM 
          0                 1           2             4    7     1       0.8802123781E-02       4    7    1         0.4637674647E+00      0.9903506987E+00
          0                 2           2             4    7     1      -0.8562081987E-03       4    7    1        -0.4637685120E-01      0.9887047785E-01
          0                 3           2             4    7     1      -0.2309276959E-01       5    8    1        -0.1240673875E+01      0.3051353013E+01
          0                 4           2             4    7     1       0.2409579670E-01       5    8    1         0.1329600345E+01      0.3256822122E+01
          0                 5           2             4    7     1      -0.9630441596E-03       5    8    1        -0.5462278588E-01      0.1337972596E+00
          0                 6           1             4    7     1       0.1579513764E-04       4    6    1         0.9207655371E-03      0.2255392989E-02

    ------------------------------------------------
       NWT REQUIRED            6 OUTER ITERATIONS 
       AND A TOTAL OF         11 INNER ITERATIONS.
    ------------------------------------------------

 NO OUTPUT CONTROL FOR STRESS PERIOD   18   TIME STEP   29
 
 SOLVING FOR HEAD 
                                                   Max.-Head-Change                         Max.-Flux-Residual
  Residual-Control   Outer-Iter.   Inner-Iter.     Column Row Layer    Maximum-Head-Change  Column Row Layer    Maximum-Flux-Residual          L2-NORM 
          0                 1           2             4    7     1       0.8680224685E-02       4    7    1         0.4573601129E+00      0.9780813843E+00
          0                 2           2             4    7     1      -0.8468879652E-03       4    7    1        -0.4587230476E-01      0.9794366671E-01
          0                 3           2             4    7     1      -0.2308798841E-01       5    8    1        -0.1240409879E+01      0.3050715030E+01
          0                 4           2             4    7     1       0.2409265351E-01       5    8    1         0.1329426653E+01      0.3256397253E+01
          0                 5           2             4    7     1      -0.9629190575E-03       5    8    1        -0.5461567983E-01      0.1337798755E+00
          0                 6           1             4    7     1       0.1579359339E-04       4    8    1         0.9206755058E-03      0.2255170397E-02

    ------------------------------------------------
       NWT REQUIRED            6 OUTER ITERATIONS 
       AND A TOTAL OF         11 INNER ITERATIONS.
    ------------------------------------------------

 NO OUTPUT CONTROL FOR STRESS PERIOD   18   TIME STEP   30



 STREAM LISTING     PERIOD     18   STEP       30

 LAYER ROW COL. STREAM  RCH.  FLOW INTO     FLOW TO   FLOW OUT OF   OVRLND.     DIRECT     STREAM       STREAM     STREAM     STREAM   STREAMBED  STREAMBED
                SEG.NO.  NO.  STRM. RCH.    AQUIFER    STRM. RCH.    RUNOFF     PRECIP       ET          HEAD       DEPTH      WIDTH   CONDCTNC.   GRADIENT

   1    1    1     1     1    4.7251E+01  3.2762E-01   4.6923E+01  0.000E+00  0.000E+00  0.000E+00  1.09443E+03  1.381E+00  1.662E+01  7.477E-02  1.460E+00
   1    2    2     1     2    4.6923E+01  5.0760E-01   4.6416E+01  0.000E+00  0.000E+00  0.000E+00  1.08944E+03  1.379E+00  1.656E+01  1.159E-01  1.460E+00
   1    3    3     1     3    4.6416E+01  4.3310E-01   4.5982E+01  0.000E+00  0.000E+00  0.000E+00  1.08379E+03  1.376E+00  1.650E+01  9.898E-02  1.459E+00
   1    3    4     1     4    4.5982E+01  3.9899E-01   4.5583E+01  0.000E+00  0.000E+00  0.000E+00  1.07878E+03  1.373E+00  1.644E+01  9.124E-02  1.458E+00
   1    4    5     2     1    4.3583E+01  3.6514E-01   4.3218E+01  0.000E+00  0.000E+00  0.000E+00  1.07362E+03  1.681E+00  1.200E+01  7.800E-02  1.560E+00
   1    5    6     2     2    4.3218E+01  2.8043E-01   4.2938E+01  0.000E+00  0.000E+00  0.000E+00  1.06818E+03  1.674E+00  1.200E+01  6.000E-02  1.558E+00
   1    6    6     2     3    4.2938E+01  2.8003E-01   4.2658E+01  0.000E+00  0.000E+00  0.000E+00  1.06346E+03  1.667E+00  1.200E+01  6.000E-02  1.556E+00
   1    7    6     2     4    4.2658E+01  2.7964E-01   4.2378E+01  0.000E+00  0.000E+00  0.000E+00  1.05874E+03  1.661E+00  1.200E+01  6.000E-02  1.554E+00
   1    8    6     2     5    4.2378E+01  2.7925E-01   4.2099E+01  0.000E+00  0.000E+00  0.000E+00  1.05401E+03  1.654E+00  1.200E+01  6.000E-02  1.551E+00
   1    3    5     3     1    2.0000E+00  2.8252E-01   1.7175E+00  0.000E+00  0.000E+00  0.000E+00  1.07555E+03  1.909E+00  9.636E+00  7.227E-02  1.955E+00
   1    3    6     3     2    1.7175E+00  2.4905E-01   1.4684E+00  0.000E+00  0.000E+00  0.000E+00  1.07264E+03  1.727E+00  8.909E+00  6.682E-02  1.864E+00
   1    3    7     3     3    1.4684E+00  1.9718E-01   1.2712E+00  0.000E+00  0.000E+00  0.000E+00  1.06987E+03  1.555E+00  8.218E+00  5.547E-02  1.777E+00
   1    4    8     3     4    1.2712E+00  2.2567E-01   1.0456E+00  0.000E+00  0.000E+00  0.000E+00  1.06682E+03  1.364E+00  7.455E+00  6.709E-02  1.682E+00
   1    5    8     3     5    1.0456E+00  1.5790E-01   8.8768E-01  0.000E+00  0.000E+00  0.000E+00  1.06362E+03  1.164E+00  6.655E+00  4.991E-02  1.582E+00
   1    6    8     3     6    8.8768E-01  5.5980E-02   8.3170E-01  0.000E+00  0.000E+00  0.000E+00  1.06158E+03  1.036E+00  6.145E+00  1.844E-02  1.518E+00
   1    5   10     4     1    1.0000E+01  9.0919E-02   9.9091E+00  0.000E+00  0.000E+00  0.000E+00  1.07836E+03  6.368E-01  1.000E+01  2.500E-02  1.212E+00
   1    5    9     4     2    9.9091E+00  1.8158E-01   9.7275E+00  0.000E+00  0.000E+00  0.000E+00  1.07154E+03  6.315E-01  1.000E+01  5.000E-02  1.211E+00
   1    6    8     4     3    9.7275E+00  1.2689E-01   9.6006E+00  0.000E+00  0.000E+00  0.000E+00  1.06381E+03  6.256E-01  1.000E+01  3.500E-02  1.209E+00
   1    6    8     5     1    1.0432E+01  2.2686E-01   1.0205E+01  0.000E+00  0.000E+00  0.000E+00  1.05868E+03  6.790E-01  1.542E+01  6.166E-02  1.226E+00
   1    7    7     5     2    1.0205E+01  2.7894E-01   9.9265E+00  0.000E+00  0.000E+00  0.000E+00  1.05417E+03  6.732E-01  1.519E+01  7.594E-02  1.224E+00
   1    8    7     5     3    9.9265E+00  1.9221E-01   9.7343E+00  0.000E+00  0.000E+00  0.000E+00  1.04992E+03  6.676E-01  1.497E+01  5.241E-02  1.223E+00
   1    8    6     5     4    9.7343E+00  1.3577E-01   9.5985E+00  0.000E+00  0.000E+00  0.000E+00  1.04691E+03  6.637E-01  1.482E+01  3.706E-02  1.221E+00
   1    9    6     6     1    4.4240E+01  2.8299E-01   4.3957E+01  0.000E+00  0.000E+00  0.000E+00  1.04444E+03  1.716E+00  1.200E+01  6.000E-02  1.572E+00
   1   10    7     6     2    4.3957E+01  2.8259E-01   4.3674E+01  0.000E+00  0.000E+00  0.000E+00  1.03989E+03  1.710E+00  1.200E+01  6.000E-02  1.570E+00
   1   11    7     6     3    4.3674E+01  2.8219E-01   4.3392E+01  0.000E+00  0.000E+00  0.000E+00  1.03534E+03  1.703E+00  1.200E+01  6.000E-02  1.568E+00
   1   12    7     6     4    4.3392E+01  2.8179E-01   4.3110E+01  0.000E+00  0.000E+00  0.000E+00  1.03079E+03  1.697E+00  1.200E+01  6.000E-02  1.566E+00
   1   13    7     6     5    4.3110E+01  1.1045E-02   4.3099E+01  0.000E+00  0.000E+00  0.000E+00  1.02760E+03  1.693E+00  1.200E+01  2.400E-02  1.534E-01
   1   14    9     7     1    1.5000E+02  1.3368E+00   1.4866E+02  0.000E+00  0.000E+00  0.000E+00  1.03987E+03  2.288E+00  5.529E+01  5.593E-01  7.967E-01
   1   13    8     7     2    1.4866E+02  1.8227E+00   1.4684E+02  0.000E+00  0.000E+00  0.000E+00  1.03478E+03  2.279E+00  5.526E+01  6.148E-01  9.883E-01
   1   13    7     7     3    1.4684E+02  1.4230E+00   1.4542E+02  0.000E+00  0.000E+00  0.000E+00  1.02969E+03  2.271E+00  5.522E+01  5.585E-01  8.493E-01
   1   13    6     8     1    1.8852E+02  9.4189E-01   1.8757E+02  0.000E+00  0.000E+00  0.000E+00  1.02494E+03  3.066E+00  4.446E+01  4.530E-01  6.930E-01
   1   13    5     8     2    1.8757E+02  1.6334E-01   1.8741E+02  0.000E+00  0.000E+00  0.000E+00  1.01869E+03  3.063E+00  4.441E+01  4.525E-01  1.203E-01
   1   13    4     8     3    1.8741E+02 -2.5271E+00   1.8994E+02  0.000E+00  0.000E+00  0.000E+00  1.01244E+03  3.070E+00  4.451E+01  4.536E+00 -1.857E-01
   1   13    3     8     4    1.8994E+02 -3.6675E+00   1.9361E+02  0.000E+00  0.000E+00  0.000E+00  1.00621E+03  3.089E+00  4.479E+01  4.564E+00 -2.679E-01
   1   13    2     8     5    1.9361E+02 -2.5907E+00   1.9620E+02  0.000E+00  0.000E+00  0.000E+00  9.99982E+02  3.107E+00  4.506E+01  4.592E+00 -1.881E-01
   1   13    1     8     6    1.9620E+02 -2.0105E+00   1.9821E+02  0.000E+00  0.000E+00  0.000E+00  9.94996E+02  3.121E+00  4.526E+01  2.767E+00 -2.422E-01
   1    8    6     9     1    7.4577E+00  0.0000E+00   7.4577E+00  0.000E+00  0.000E+00  0.000E+00  1.08065E+03  1.900E+00  4.000E+00  0.000E+00  1.633E+00
   1    8    5     9     2    7.4577E+00  0.0000E+00   7.4577E+00  0.000E+00  0.000E+00  0.000E+00  1.08015E+03  1.900E+00  4.000E+00  0.000E+00  1.633E+00





UNSATURATED ZONE PACKAGE VOLUMETRIC BUDGET FOR  TIME STEP    30 STRESS PERIOD   18
  ------------------------------------------------------------------------------



     CUMULATIVE VOLUMES      L**3       RATES FOR THIS TIME STEP      L**3/T
     ------------------                 ------------------------

           IN:                                      IN:
           ---                                      ---
        INFILTRATION =   549271803.6639          INFILTRATION =           8.3054

          OUT:                                     OUT:
          ----                                     ----
              UZF ET =   470533043.8878                UZF ET =           8.3175
        UZF RECHARGE =       73224.0000          UZF RECHARGE =       0.0000E+00

            IN - OUT =    78665535.7761              IN - OUT =      -1.2144E-02

          STORAGE:                                 STORAGE:
          --------                                 --------
      STORAGE CHANGE =    78701225.0500        STORAGE CHANGE =      -1.2145E-02

 PERCENT DISCREPANCY IS DIFFERENCE BETWEEN IN-OUT MINUS CHANGE IN STORAGE
 DIVIDED BY THE AVERAGE OF IN AND OUT TIMES 100

 PERCENT DISCREPANCY =          -0.00     PERCENT DISCREPANCY =           0.00






1
  VOLUMETRIC BUDGET FOR AGRICULTURAL FIELDS AT  END OF TIME STEP   30, STRESS PERIOD  18
  ------------------------------------------------------------------------------

     CUMULATIVE VOLUMES      L**3       RATES FOR THIS TIME STEP      L**3/T
     ------------------                 ------------------------

           IN:                                      IN:
           ---                                      ---
           AG WELLS      =   123633096.0000             AG WELLS      =           0.0000
      DIVERSION SEGMENTS =   387673056.0000        DIVERSION SEGMENTS =           7.4577
           GW IRRIGATION =           0.0000             GW IRRIGATION =           0.0000
           SW IRRIGATION =           0.0000             SW IRRIGATION =           0.0000
        SYSTEM LOSSES GW =           0.0000          SYSTEM LOSSES GW =           0.0000
        SYSTEM LOSSES SW =           0.0000          SYSTEM LOSSES SW =           0.0000

                TOTAL IN =   511306144.0000                  TOTAL IN =           7.4577

          OUT:                                     OUT:
          ----                                     ----
           AG WELLS      =           0.0000             AG WELLS      =           0.0000
      DIVERSION SEGMENTS =           0.0000        DIVERSION SEGMENTS =           0.0000
           GW IRRIGATION =   123633096.0000             GW IRRIGATION =           0.0000
           SW IRRIGATION =   387680800.0000             SW IRRIGATION =           7.4579
        SYSTEM LOSSES GW =           0.0000          SYSTEM LOSSES GW =           0.0000
        SYSTEM LOSSES SW =           0.0000          SYSTEM LOSSES SW =           0.0000

               TOTAL OUT =   511313888.0000                 TOTAL OUT =           7.4579

                IN - OUT =       -7744.0000                  IN - OUT =      -1.4925E-04

     PERCENT DISCREPANCY =          -0.00         PERCENT DISCREPANCY =          -0.00



1
  VOLUMETRIC BUDGET FOR ENTIRE MODEL AT END OF TIME STEP   30, STRESS PERIOD  18
  ------------------------------------------------------------------------------

     CUMULATIVE VOLUMES      L**3       RATES FOR THIS TIME STEP      L**3/T
     ------------------                 ------------------------

           IN:                                      IN:
           ---                                      ---
             STORAGE     =   209255008.0000               STORAGE     =           1.5009
       CONSTANT HEAD     =           0.0000         CONSTANT HEAD     =           0.0000
     HEAD DEP BOUNDS     =    12800922.0000       HEAD DEP BOUNDS     =           0.2858
      STREAM LEAKAGE     =   539177408.0000        STREAM LEAKAGE     =          12.3815
        UZF RECHARGE     =       73223.9531          UZF RECHARGE     =           0.0000
               GW ET     =           0.0000                 GW ET     =           0.0000
     SURFACE LEAKAGE     =           0.0000       SURFACE LEAKAGE     =           0.0000
           AG WELLS      =           0.0000             AG WELLS      =           0.0000

                TOTAL IN =   761306560.0000                  TOTAL IN =          14.1683

          OUT:                                     OUT:
          ----                                     ----
             STORAGE     =   140941360.0000               STORAGE     =           3.0310
       CONSTANT HEAD     =           0.0000         CONSTANT HEAD     =           0.0000
     HEAD DEP BOUNDS     =    13045994.0000       HEAD DEP BOUNDS     =           0.2935
      STREAM LEAKAGE     =   481482592.0000        STREAM LEAKAGE     =          10.7958
        UZF RECHARGE     =           0.0000          UZF RECHARGE     =           0.0000
               GW ET     =     2208463.0000                 GW ET     =       4.7961E-02
     SURFACE LEAKAGE     =           0.0000       SURFACE LEAKAGE     =           0.0000
           AG WELLS      =   123633096.0000             AG WELLS      =           0.0000

               TOTAL OUT =   761311488.0000                 TOTAL OUT =          14.1682

                IN - OUT =       -4928.0000                  IN - OUT =       8.4877E-05

     PERCENT DISCREPANCY =          -0.00         PERCENT DISCREPANCY =           0.00






         TIME SUMMARY AT END OF TIME STEP   30 IN STRESS PERIOD   18
                    SECONDS     MINUTES      HOURS       DAYS        YEARS
                    -----------------------------------------------------------
   TIME STEP LENGTH  87667.      1461.1      24.352      1.0147     2.77799E-03
 STRESS PERIOD TIME 2.63000E+06  43833.      730.56      30.440     8.33397E-02
         TOTAL TIME 4.47965E+07 7.46608E+05  12443.      518.48      1.4195    
1
1
                            STRESS PERIOD NO.   19, LENGTH =   2630000.    
                            -----------------------------------------------

                              NUMBER OF TIME STEPS =    30

                               MULTIPLIER FOR DELT =     1.000

                            INITIAL TIME STEP SIZE =   87666.66    

 REUSING NON-PARAMETER GHB CELLS FROM LAST STRESS PERIOD

      2 GHB CELLS

 REUSING STREAM SEGMENT DATA FROM LAST STRESS PERIOD



            AREAL INFILTRATION RATE
 READING ON UNIT   19 WITH FORMAT: (FREE)              

            1           2           3           4           5           6           7           8           9          10
 ........................................................................................................................
   1   1.0000E-10  2.0000E-10   0.000       0.000       0.000       0.000       0.000       0.000       0.000       0.000    
   2   2.0000E-10  1.0000E-10  2.0000E-10   0.000       0.000      8.0000E-10  8.0000E-10  5.0000E-10   0.000       0.000    
   3    0.000      5.0000E-10  1.0000E-10  1.0000E-10  8.0000E-10  8.0000E-10  5.0000E-10  5.0000E-10   0.000       0.000    
   4   8.0000E-10  5.0000E-10  1.0000E-10  1.0000E-10  1.0000E-10  1.0000E-10  1.0000E-10  1.0000E-10  2.0000E-10   0.000    
   5   8.0000E-10  5.0000E-10  1.0000E-10  1.0000E-10  1.0000E-10  1.0000E-10  1.0000E-10  1.0000E-10  1.0000E-10  1.0000E-10
   6   8.0000E-10  5.0000E-10  5.0000E-10  2.0000E-10  2.0000E-10  1.0000E-10  1.0000E-10  1.0000E-10  1.0000E-10  5.0000E-10
   7   8.0000E-10  5.0000E-10  5.0000E-10  2.0000E-10  2.0000E-10  1.0000E-10  1.0000E-10  2.0000E-10  2.0000E-10   0.000    
   8    0.000      5.0000E-10  5.0000E-10  2.0000E-10  2.0000E-10  1.0000E-10  1.0000E-10  2.0000E-10  5.0000E-10   0.000    
   9    0.000      5.0000E-10  5.0000E-10  2.0000E-10  2.0000E-10  1.0000E-10  1.0000E-10  2.0000E-10  5.0000E-10   0.000    
  10    0.000      5.0000E-10  5.0000E-10  2.0000E-10  2.0000E-10  1.0000E-10  1.0000E-10  2.0000E-10  5.0000E-10  8.0000E-10
  11    0.000      1.0000E-10  1.0000E-10  1.0000E-10  1.0000E-10  1.0000E-10  1.0000E-10  2.0000E-10  5.0000E-10   0.000    
  12   1.0000E-10  1.0000E-10  1.0000E-10  1.0000E-10  1.0000E-10  1.0000E-10  1.0000E-10  1.0000E-10  2.0000E-10   0.000    
  13   1.0000E-10  1.0000E-10  2.0000E-10  2.0000E-10  2.0000E-10  2.0000E-10  2.0000E-10  1.0000E-10  1.0000E-10   0.000    
  14    0.000      2.0000E-10  5.0000E-10  5.0000E-10  5.0000E-10  5.0000E-10  5.0000E-10  2.0000E-10  1.0000E-10   0.000    
  15    0.000       0.000      8.0000E-10  8.0000E-10  8.0000E-10  8.0000E-10   0.000       0.000       0.000       0.000    

                  ET RATE =  1.500000E-07

 USING ET EXTINCTION DEPTH FROM PREVIOUS STRESS PERIOD. CURRENT PERIOD IS:      19

 USING EXTINCTION WATER CONTENT FROM PREVIOUS STRESS PERIOD. CURRENT PERIOD IS:      19

 USING AIR ENTRY PRESSURE FROM PREVIOUS STRESS PERIOD. CURRENT PERIOD IS:      19

 USING ROOT PRESSURE HEAD FROM PREVIOUS STRESS PERIOD. CURRENT PERIOD IS:      19

 USING ROOT ACTIVITY FROM PREVIOUS STRESS PERIOD. CURRENT PERIOD IS:      19

 PROCESSING AG STRESS PERIOD DATA

 READING AG STRESS PERIOD DATA

 READING IRRIGATION SEGMENT

 READING IRRIGATION WELL

 READING SUPPLEMENTAL WELL

 END PROCESSING AG STRESS PERIOD DATA OPTIONS
 
 SOLVING FOR HEAD 
                                                   Max.-Head-Change                         Max.-Flux-Residual
  Residual-Control   Outer-Iter.   Inner-Iter.     Column Row Layer    Maximum-Head-Change  Column Row Layer    Maximum-Flux-Residual          L2-NORM 
          0                 1           2             4    7     1       0.8559465041E-02       4    7    1         0.4510101687E+00      0.1223011422E+01
          0                 2           2             4    7     1      -0.7393879605E-01       4    7    1        -0.3969179099E+01      0.9713508997E+01
          0                 3           2             4    7     1       0.5362251751E-01       4    7    1         0.2958752486E+01      0.7245916011E+01
          0                 4           2             4    7     1      -0.2133708203E-02       4    7    1        -0.1210108718E+00      0.2963761240E+00
          0                 5           1             4    7     1       0.2630951772E-04       4    7    1         0.1533353898E-02      0.3758425870E-02

    ------------------------------------------------
       NWT REQUIRED            5 OUTER ITERATIONS 
       AND A TOTAL OF          9 INNER ITERATIONS.
    ------------------------------------------------

 OUTPUT CONTROL FOR STRESS PERIOD   19   TIME STEP    1
    PRINT BUDGET
    SAVE BUDGET
 UBDSV1 SAVING "         STORAGE" ON UNIT 102 AT TIME STEP  1, STRESS PERIOD  19
 UBDSV2 SAVING "   CONSTANT HEAD" ON UNIT 102 AT TIME STEP  1, STRESS PERIOD  19
 UBDSV1 SAVING "FLOW RIGHT FACE " ON UNIT 102 AT TIME STEP  1, STRESS PERIOD  19
 UBDSV1 SAVING "FLOW FRONT FACE " ON UNIT 102 AT TIME STEP  1, STRESS PERIOD  19

  HEAD DEP BOUNDS   PERIOD   19   STEP     1
 BOUNDARY      1   LAYER   1   ROW    13   COL     1   RATE   -0.293191    
 BOUNDARY      2   LAYER   1   ROW    14   COL     9   RATE    0.285825    



 STREAM LISTING     PERIOD     19   STEP        1

 LAYER ROW COL. STREAM  RCH.  FLOW INTO     FLOW TO   FLOW OUT OF   OVRLND.     DIRECT     STREAM       STREAM     STREAM     STREAM   STREAMBED  STREAMBED
                SEG.NO.  NO.  STRM. RCH.    AQUIFER    STRM. RCH.    RUNOFF     PRECIP       ET          HEAD       DEPTH      WIDTH   CONDCTNC.   GRADIENT

   1    1    1     1     1    4.3652E+01  3.1614E-01   4.3336E+01  0.000E+00  0.000E+00  0.000E+00  1.09441E+03  1.357E+00  1.612E+01  7.255E-02  1.452E+00
   1    2    2     1     2    4.3336E+01  4.8972E-01   4.2846E+01  0.000E+00  0.000E+00  0.000E+00  1.08941E+03  1.355E+00  1.607E+01  1.125E-01  1.452E+00
   1    3    3     1     3    4.2846E+01  4.1777E-01   4.2428E+01  0.000E+00  0.000E+00  0.000E+00  1.08377E+03  1.351E+00  1.600E+01  9.601E-02  1.450E+00
   1    3    4     1     4    4.2428E+01  3.8480E-01   4.2043E+01  0.000E+00  0.000E+00  0.000E+00  1.07876E+03  1.349E+00  1.594E+01  8.849E-02  1.450E+00
   1    4    5     2     1    4.0043E+01  3.5862E-01   3.9685E+01  0.000E+00  0.000E+00  0.000E+00  1.07353E+03  1.598E+00  1.200E+01  7.800E-02  1.533E+00
   1    5    6     2     2    3.9685E+01  2.7540E-01   3.9409E+01  0.000E+00  0.000E+00  0.000E+00  1.06810E+03  1.590E+00  1.200E+01  6.000E-02  1.530E+00
   1    6    6     2     3    3.9409E+01  2.7500E-01   3.9134E+01  0.000E+00  0.000E+00  0.000E+00  1.06338E+03  1.583E+00  1.200E+01  6.000E-02  1.528E+00
   1    7    6     2     4    3.9134E+01  2.7461E-01   3.8860E+01  0.000E+00  0.000E+00  0.000E+00  1.05865E+03  1.577E+00  1.200E+01  6.000E-02  1.526E+00
   1    8    6     2     5    3.8860E+01  2.7421E-01   3.8585E+01  0.000E+00  0.000E+00  0.000E+00  1.05393E+03  1.570E+00  1.200E+01  6.000E-02  1.523E+00
   1    3    5     3     1    2.0000E+00  2.8252E-01   1.7175E+00  0.000E+00  0.000E+00  0.000E+00  1.07555E+03  1.909E+00  9.636E+00  7.227E-02  1.955E+00
   1    3    6     3     2    1.7175E+00  2.4905E-01   1.4684E+00  0.000E+00  0.000E+00  0.000E+00  1.07264E+03  1.727E+00  8.909E+00  6.682E-02  1.864E+00
   1    3    7     3     3    1.4684E+00  1.9718E-01   1.2712E+00  0.000E+00  0.000E+00  0.000E+00  1.06987E+03  1.555E+00  8.218E+00  5.547E-02  1.777E+00
   1    4    8     3     4    1.2712E+00  2.2567E-01   1.0456E+00  0.000E+00  0.000E+00  0.000E+00  1.06682E+03  1.364E+00  7.455E+00  6.709E-02  1.682E+00
   1    5    8     3     5    1.0456E+00  1.5790E-01   8.8768E-01  0.000E+00  0.000E+00  0.000E+00  1.06362E+03  1.164E+00  6.655E+00  4.991E-02  1.582E+00
   1    6    8     3     6    8.8768E-01  5.5980E-02   8.3170E-01  0.000E+00  0.000E+00  0.000E+00  1.06158E+03  1.036E+00  6.145E+00  1.844E-02  1.518E+00
   1    5   10     4     1    1.0000E+01  9.0919E-02   9.9091E+00  0.000E+00  0.000E+00  0.000E+00  1.07836E+03  6.368E-01  1.000E+01  2.500E-02  1.212E+00
   1    5    9     4     2    9.9091E+00  1.8158E-01   9.7275E+00  0.000E+00  0.000E+00  0.000E+00  1.07154E+03  6.315E-01  1.000E+01  5.000E-02  1.211E+00
   1    6    8     4     3    9.7275E+00  1.2689E-01   9.6006E+00  0.000E+00  0.000E+00  0.000E+00  1.06381E+03  6.256E-01  1.000E+01  3.500E-02  1.209E+00
   1    6    8     5     1    1.0432E+01  2.2686E-01   1.0205E+01  0.000E+00  0.000E+00  0.000E+00  1.05868E+03  6.790E-01  1.542E+01  6.166E-02  1.226E+00
   1    7    7     5     2    1.0205E+01  2.7894E-01   9.9265E+00  0.000E+00  0.000E+00  0.000E+00  1.05417E+03  6.732E-01  1.519E+01  7.594E-02  1.224E+00
   1    8    7     5     3    9.9265E+00  1.9221E-01   9.7343E+00  0.000E+00  0.000E+00  0.000E+00  1.04992E+03  6.676E-01  1.497E+01  5.241E-02  1.223E+00
   1    8    6     5     4    9.7343E+00  1.3577E-01   9.5985E+00  0.000E+00  0.000E+00  0.000E+00  1.04691E+03  6.637E-01  1.482E+01  3.706E-02  1.221E+00
   1    9    6     6     1    9.5985E+00  2.2097E-01   9.3776E+00  0.000E+00  0.000E+00  0.000E+00  1.04341E+03  6.828E-01  1.200E+01  6.000E-02  1.228E+00
   1   10    7     6     2    9.3776E+00  2.2039E-01   9.1572E+00  0.000E+00  0.000E+00  0.000E+00  1.03885E+03  6.732E-01  1.200E+01  6.000E-02  1.224E+00
   1   11    7     6     3    9.1572E+00  2.1981E-01   8.9374E+00  0.000E+00  0.000E+00  0.000E+00  1.03430E+03  6.636E-01  1.200E+01  6.000E-02  1.221E+00
   1   12    7     6     4    8.9374E+00  2.1923E-01   8.7181E+00  0.000E+00  0.000E+00  0.000E+00  1.02974E+03  6.539E-01  1.200E+01  6.000E-02  1.218E+00
   1   13    7     6     5    8.7181E+00 -1.3880E-01   8.8569E+00  0.000E+00  0.000E+00  0.000E+00  1.02656E+03  6.521E-01  1.200E+01  2.400E-01 -1.928E-01
   1   14    9     7     1    1.5000E+02  1.3368E+00   1.4866E+02  0.000E+00  0.000E+00  0.000E+00  1.03987E+03  2.288E+00  5.529E+01  5.593E-01  7.967E-01
   1   13    8     7     2    1.4866E+02  1.8226E+00   1.4684E+02  0.000E+00  0.000E+00  0.000E+00  1.03478E+03  2.279E+00  5.526E+01  6.148E-01  9.882E-01
   1   13    7     7     3    1.4684E+02  1.4244E+00   1.4542E+02  0.000E+00  0.000E+00  0.000E+00  1.02969E+03  2.271E+00  5.522E+01  5.585E-01  8.502E-01
   1   13    6     8     1    1.5427E+02  7.8160E-01   1.5349E+02  0.000E+00  0.000E+00  0.000E+00  1.02472E+03  2.844E+00  4.124E+01  4.202E-01  6.200E-01
   1   13    5     8     2    1.5349E+02  5.9423E-02   1.5343E+02  0.000E+00  0.000E+00  0.000E+00  1.01847E+03  2.841E+00  4.120E+01  4.198E-01  4.718E-02
   1   13    4     8     3    1.5343E+02 -3.2163E+00   1.5665E+02  0.000E+00  0.000E+00  0.000E+00  1.01223E+03  2.852E+00  4.135E+01  4.214E+00 -2.544E-01
   1   13    3     8     4    1.5665E+02 -4.2689E+00   1.6092E+02  0.000E+00  0.000E+00  0.000E+00  1.00600E+03  2.878E+00  4.173E+01  4.252E+00 -3.347E-01
   1   13    2     8     5    1.6092E+02 -3.2466E+00   1.6416E+02  0.000E+00  0.000E+00  0.000E+00  9.99778E+02  2.903E+00  4.209E+01  4.289E+00 -2.523E-01
   1   13    1     8     6    1.6416E+02 -2.3801E+00   1.6654E+02  0.000E+00  0.000E+00  0.000E+00  9.94797E+02  2.922E+00  4.236E+01  2.590E+00 -3.063E-01
   1    8    6     9     1    3.8585E+01  0.0000E+00   3.8585E+01  0.000E+00  0.000E+00  0.000E+00  1.08384E+03  5.095E+00  4.000E+00  0.000E+00  2.698E+00
   1    8    5     9     2    3.8585E+01  0.0000E+00   3.8585E+01  0.000E+00  0.000E+00  0.000E+00  1.08334E+03  5.095E+00  4.000E+00  0.000E+00  2.698E+00



 UBDSV3 SAVING "           GW ET" ON UNIT  61 AT TIME STEP  1, STRESS PERIOD  19
 UBDSV3 SAVING "    UZF RECHARGE" ON UNIT  61 AT TIME STEP  1, STRESS PERIOD  19
 UBDSV3 SAVING " SURFACE LEAKAGE" ON UNIT  61 AT TIME STEP  1, STRESS PERIOD  19
 UBDSV3 SAVING "       HORT+DUNN" ON UNIT  61 AT TIME STEP  1, STRESS PERIOD  19
 UBDSV3 SAVING "  STORAGE CHANGE" ON UNIT  61 AT TIME STEP  1, STRESS PERIOD  19


UNSATURATED ZONE PACKAGE VOLUMETRIC BUDGET FOR  TIME STEP     1 STRESS PERIOD   19
  ------------------------------------------------------------------------------



     CUMULATIVE VOLUMES      L**3       RATES FOR THIS TIME STEP      L**3/T
     ------------------                 ------------------------

           IN:                                      IN:
           ---                                      ---
        INFILTRATION =   553382733.4098          INFILTRATION =          46.8927

          OUT:                                     OUT:
          ----                                     ----
              UZF ET =   472577211.3837                UZF ET =          23.3175
        UZF RECHARGE =       73224.0000          UZF RECHARGE =       0.0000E+00

            IN - OUT =    80732298.0261              IN - OUT =          23.5752

          STORAGE:                                 STORAGE:
          --------                                 --------
      STORAGE CHANGE =    80767987.4056        STORAGE CHANGE =          23.5752

 PERCENT DISCREPANCY IS DIFFERENCE BETWEEN IN-OUT MINUS CHANGE IN STORAGE
 DIVIDED BY THE AVERAGE OF IN AND OUT TIMES 100

 PERCENT DISCREPANCY =          -0.00     PERCENT DISCREPANCY =          -0.00






 

        AG WELLS          PERIOD   19   STEP   1
 AG WELL      1   LAYER   1   ROW     6   COL     4   RATE    -1.24316    
 AG WELL      2   LAYER   1   ROW     6   COL     5   RATE    -1.24316    
 AG WELL      3   LAYER   1   ROW     7   COL     4   RATE    -1.24316    
 AG WELL      4   LAYER   1   ROW     7   COL     5   RATE    -1.24316    
 AG WELL      5   LAYER   1   ROW     8   COL     4   RATE    -1.24316    
 AG WELL      6   LAYER   1   ROW     8   COL     5   RATE    -1.24316    
 
 

   DIVERSION SEGMENTS     PERIOD   19   STEP   1
 SEGMENT      9   RATE     38.5855    
 
 

        SW IRRIGATION     PERIOD   19   STEP   1
 SEGMENT      9   ROW     6   COL     4   RATE     6.43104    
 SEGMENT      9   ROW     6   COL     5   RATE     6.43104    
 SEGMENT      9   ROW     7   COL     4   RATE     6.43104    
 SEGMENT      9   ROW     7   COL     5   RATE     6.43104    
 SEGMENT      9   ROW     8   COL     4   RATE     6.43104    
 SEGMENT      9   ROW     8   COL     5   RATE     6.43104    
 
 

        GW IRRIGATION     PERIOD   19   STEP   1
 AG WELL      1   ROW     6   COL     4   RATE     1.24316    
 AG WELL      2   ROW     6   COL     5   RATE     1.24316    
 AG WELL      3   ROW     7   COL     4   RATE     1.24316    
 AG WELL      4   ROW     7   COL     5   RATE     1.24316    
 AG WELL      5   ROW     8   COL     4   RATE     1.24316    
 AG WELL      6   ROW     8   COL     5   RATE     1.24316    
 
1
  VOLUMETRIC BUDGET FOR AGRICULTURAL FIELDS AT  END OF TIME STEP    1, STRESS PERIOD  19
  ------------------------------------------------------------------------------

     CUMULATIVE VOLUMES      L**3       RATES FOR THIS TIME STEP      L**3/T
     ------------------                 ------------------------

           IN:                                      IN:
           ---                                      ---
           AG WELLS      =   124287000.0000             AG WELLS      =           7.4590
      DIVERSION SEGMENTS =   391055712.0000        DIVERSION SEGMENTS =          38.5855
           GW IRRIGATION =           0.0000             GW IRRIGATION =           0.0000
           SW IRRIGATION =           0.0000             SW IRRIGATION =           0.0000
        SYSTEM LOSSES GW =           0.0000          SYSTEM LOSSES GW =           0.0000
        SYSTEM LOSSES SW =           0.0000          SYSTEM LOSSES SW =           0.0000

                TOTAL IN =   515342720.0000                  TOTAL IN =          46.0445

          OUT:                                     OUT:
          ----                                     ----
           AG WELLS      =           0.0000             AG WELLS      =           0.0000
      DIVERSION SEGMENTS =           0.0000        DIVERSION SEGMENTS =           0.0000
           GW IRRIGATION =   124287000.0000             GW IRRIGATION =           7.4590
           SW IRRIGATION =   391063520.0000             SW IRRIGATION =          38.5863
        SYSTEM LOSSES GW =           0.0000          SYSTEM LOSSES GW =           0.0000
        SYSTEM LOSSES SW =           0.0000          SYSTEM LOSSES SW =           0.0000

               TOTAL OUT =   515350528.0000                 TOTAL OUT =          46.0452

                IN - OUT =       -7808.0000                  IN - OUT =      -7.7057E-04

     PERCENT DISCREPANCY =          -0.00         PERCENT DISCREPANCY =          -0.00



1
  VOLUMETRIC BUDGET FOR ENTIRE MODEL AT END OF TIME STEP    1, STRESS PERIOD  19
  ------------------------------------------------------------------------------

     CUMULATIVE VOLUMES      L**3       RATES FOR THIS TIME STEP      L**3/T
     ------------------                 ------------------------

           IN:                                      IN:
           ---                                      ---
             STORAGE     =   210107280.0000               STORAGE     =           9.7218
       CONSTANT HEAD     =           0.0000         CONSTANT HEAD     =           0.0000
     HEAD DEP BOUNDS     =    12825979.0000       HEAD DEP BOUNDS     =           0.2858
      STREAM LEAKAGE     =   540209472.0000        STREAM LEAKAGE     =          11.7729
        UZF RECHARGE     =       73223.9531          UZF RECHARGE     =           0.0000
               GW ET     =           0.0000                 GW ET     =           0.0000
     SURFACE LEAKAGE     =           0.0000       SURFACE LEAKAGE     =           0.0000
           AG WELLS      =           0.0000             AG WELLS      =           0.0000

                TOTAL IN =   763215936.0000                  TOTAL IN =          21.7806

          OUT:                                     OUT:
          ----                                     ----
             STORAGE     =   141005216.0000               STORAGE     =           0.7284
       CONSTANT HEAD     =           0.0000         CONSTANT HEAD     =           0.0000
     HEAD DEP BOUNDS     =    13071697.0000       HEAD DEP BOUNDS     =           0.2932
      STREAM LEAKAGE     =   482644224.0000        STREAM LEAKAGE     =          13.2506
        UZF RECHARGE     =           0.0000          UZF RECHARGE     =           0.0000
               GW ET     =     2212780.0000                 GW ET     =       4.9242E-02
     SURFACE LEAKAGE     =           0.0000       SURFACE LEAKAGE     =           0.0000
           AG WELLS      =   124287000.0000             AG WELLS      =           7.4590

               TOTAL OUT =   763220928.0000                 TOTAL OUT =          21.7804

                IN - OUT =       -4992.0000                  IN - OUT =       1.3542E-04

     PERCENT DISCREPANCY =          -0.00         PERCENT DISCREPANCY =           0.00






         TIME SUMMARY AT END OF TIME STEP    1 IN STRESS PERIOD   19
                    SECONDS     MINUTES      HOURS       DAYS        YEARS
                    -----------------------------------------------------------
   TIME STEP LENGTH  87667.      1461.1      24.352      1.0147     2.77799E-03
 STRESS PERIOD TIME  87667.      1461.1      24.352      1.0147     2.77799E-03
         TOTAL TIME 4.48841E+07 7.48069E+05  12468.      519.49      1.4223    
1
 
 SOLVING FOR HEAD 
                                                   Max.-Head-Change                         Max.-Flux-Residual
  Residual-Control   Outer-Iter.   Inner-Iter.     Column Row Layer    Maximum-Head-Change  Column Row Layer    Maximum-Flux-Residual          L2-NORM 
          0                 1           2             4    7     1       0.8567143650E-02       4    7    1         0.4507787981E+00      0.9930584359E+00
          0                 2           2             7   13     1      -0.2354196847E-02       7   13    1        -0.1306444315E+00      0.1630383611E+00
          0                 3           2             7   13     1       0.1602679665E-03       7   13    1         0.9142650352E-02      0.1140217447E-01
          0                 4           1             7   13     1      -0.6374679473E-05       7   13    1        -0.3737904033E-03      0.4657156457E-03

    ------------------------------------------------
       NWT REQUIRED            4 OUTER ITERATIONS 
       AND A TOTAL OF          7 INNER ITERATIONS.
    ------------------------------------------------

 NO OUTPUT CONTROL FOR STRESS PERIOD   19   TIME STEP    2
 
 SOLVING FOR HEAD 
                                                   Max.-Head-Change                         Max.-Flux-Residual
  Residual-Control   Outer-Iter.   Inner-Iter.     Column Row Layer    Maximum-Head-Change  Column Row Layer    Maximum-Flux-Residual          L2-NORM 
          0                 1           2             4    7     1       0.8459078514E-02       4    7    1         0.4451321347E+00      0.9666529872E+00
          0                 2           2             4    7     1      -0.7059006532E-01       4    7    1        -0.3789368223E+01      0.9303026950E+01
          0                 3           2             4    7     1       0.7267677623E-01       4    7    1         0.4010105235E+01      0.9821474853E+01
          0                 4           2             4    7     1      -0.2891910069E-02       4    7    1        -0.1640109885E+00      0.4017065860E+00
          0                 5           1             4    7     1       0.3565845089E-04       5    7    1         0.2078324776E-02      0.5091011812E-02

    ------------------------------------------------
       NWT REQUIRED            5 OUTER ITERATIONS 
       AND A TOTAL OF          9 INNER ITERATIONS.
    ------------------------------------------------

 NO OUTPUT CONTROL FOR STRESS PERIOD   19   TIME STEP    3
 
 SOLVING FOR HEAD 
                                                   Max.-Head-Change                         Max.-Flux-Residual
  Residual-Control   Outer-Iter.   Inner-Iter.     Column Row Layer    Maximum-Head-Change  Column Row Layer    Maximum-Flux-Residual          L2-NORM 
          0                 1           2             4    7     1       0.8351922663E-02       4    7    1         0.4395292373E+00      0.9769544636E+00
          0                 2           2             7   13     1      -0.2353175033E-02       7   13    1        -0.1305852621E+00      0.1618578403E+00
          0                 3           2             4    7     1      -0.6959537715E-01       5    8    1        -0.3736530129E+01      0.9191551440E+01
          0                 4           2             4    7     1       0.7249786426E-01       5    6    1         0.4000240405E+01      0.9798632911E+01
          0                 5           2             4    7     1      -0.2885474828E-02       4    8    1        -0.1636621158E+00      0.4008765609E+00
          0                 6           1             4    7     1       0.3560551742E-04       4    8    1         0.2075662362E-02      0.5084177262E-02

    ------------------------------------------------
       NWT REQUIRED            6 OUTER ITERATIONS 
       AND A TOTAL OF         11 INNER ITERATIONS.
    ------------------------------------------------

 NO OUTPUT CONTROL FOR STRESS PERIOD   19   TIME STEP    4
 
 SOLVING FOR HEAD 
                                                   Max.-Head-Change                         Max.-Flux-Residual
  Residual-Control   Outer-Iter.   Inner-Iter.     Column Row Layer    Maximum-Head-Change  Column Row Layer    Maximum-Flux-Residual          L2-NORM 
          0                 1           2             4    7     1       0.8245727951E-02       4    7    1         0.4339732931E+00      0.9820281090E+00
          0                 2           2             7   13     1      -0.2353029074E-02       7   13    1        -0.1305742986E+00      0.1650720624E+00
          0                 3           2             4    7     1      -0.6959748706E-01       5    8    1        -0.3736649296E+01      0.9191873152E+01
          0                 4           2             4    7     1       0.7249935705E-01       5    6    1         0.4000323833E+01      0.9798817013E+01
          0                 5           2             4    7     1      -0.2885534243E-02       4    8    1        -0.1636655167E+00      0.4008845114E+00
          0                 6           1             4    7     1       0.3560625045E-04       4    8    1         0.2075705481E-02      0.5084286773E-02

    ------------------------------------------------
       NWT REQUIRED            6 OUTER ITERATIONS 
       AND A TOTAL OF         11 INNER ITERATIONS.
    ------------------------------------------------

 NO OUTPUT CONTROL FOR STRESS PERIOD   19   TIME STEP    5
 
 SOLVING FOR HEAD 
                                                   Max.-Head-Change                         Max.-Flux-Residual
  Residual-Control   Outer-Iter.   Inner-Iter.     Column Row Layer    Maximum-Head-Change  Column Row Layer    Maximum-Flux-Residual          L2-NORM 
          0                 1           2             4    7     1       0.8140004739E-02       4    7    1         0.4284376068E+00      0.9843175549E+00
          0                 2           2             7   13     1      -0.2353006097E-02       7   13    1        -0.1305703108E+00      0.1619114072E+00
          0                 3           2             4    7     1      -0.6959955817E-01       5    8    1        -0.3736764581E+01      0.9192310611E+01
          0                 4           2             4    7     1       0.7250081258E-01       5    6    1         0.4000405093E+01      0.9799058030E+01
          0                 5           2             4    7     1      -0.2885592175E-02       4    8    1        -0.1636688316E+00      0.4008938148E+00
          0                 6           1             4    7     1       0.3560696512E-04       4    8    1         0.2075747524E-02      0.5084376680E-02

    ------------------------------------------------
       NWT REQUIRED            6 OUTER ITERATIONS 
       AND A TOTAL OF         11 INNER ITERATIONS.
    ------------------------------------------------

 NO OUTPUT CONTROL FOR STRESS PERIOD   19   TIME STEP    6
 
 SOLVING FOR HEAD 
                                                   Max.-Head-Change                         Max.-Flux-Residual
  Residual-Control   Outer-Iter.   Inner-Iter.     Column Row Layer    Maximum-Head-Change  Column Row Layer    Maximum-Flux-Residual          L2-NORM 
          0                 1           2             4    7     1       0.8035372585E-02       4    7    1         0.4229559490E+00      0.9875384820E+00
          0                 2           2             7   13     1      -0.2353096749E-02       7   13    1        -0.1305728258E+00      0.1619548801E+00
          0                 3           2             4    7     1      -0.6960159524E-01       5    8    1        -0.3736876804E+01      0.9192675027E+01
          0                 4           2             4    7     1       0.7250223991E-01       5    6    1         0.4000484702E+01      0.9799253145E+01
          0                 5           2             4    7     1      -0.2885648985E-02       4    8    1        -0.1636720813E+00      0.4009018020E+00
          0                 6           1             4    7     1       0.3560766656E-04       4    8    1         0.2075788743E-02      0.5084490528E-02

    ------------------------------------------------
       NWT REQUIRED            6 OUTER ITERATIONS 
       AND A TOTAL OF         11 INNER ITERATIONS.
    ------------------------------------------------

 NO OUTPUT CONTROL FOR STRESS PERIOD   19   TIME STEP    7
 
 SOLVING FOR HEAD 
                                                   Max.-Head-Change                         Max.-Flux-Residual
  Residual-Control   Outer-Iter.   Inner-Iter.     Column Row Layer    Maximum-Head-Change  Column Row Layer    Maximum-Flux-Residual          L2-NORM 
          0                 1           2             4    7     1       0.7931605672E-02       4    7    1         0.4175160699E+00      0.9913667157E+00
          0                 2           2             7   13     1      -0.2353307530E-02       7   13    1        -0.1305821249E+00      0.1620485927E+00
          0                 3           2             4    7     1      -0.6960359978E-01       5    8    1        -0.3736985842E+01      0.9193026387E+01
          0                 4           2             4    7     1       0.7250363910E-01       5    6    1         0.4000562659E+01      0.9799444291E+01
          0                 5           2             4    7     1      -0.2885704674E-02       4    8    1        -0.1636752659E+00      0.4009096119E+00
          0                 6           1             4    7     1       0.3560835366E-04       4    8    1         0.2075829132E-02      0.5084592604E-02

    ------------------------------------------------
       NWT REQUIRED            6 OUTER ITERATIONS 
       AND A TOTAL OF         11 INNER ITERATIONS.
    ------------------------------------------------

 NO OUTPUT CONTROL FOR STRESS PERIOD   19   TIME STEP    8
 
 SOLVING FOR HEAD 
                                                   Max.-Head-Change                         Max.-Flux-Residual
  Residual-Control   Outer-Iter.   Inner-Iter.     Column Row Layer    Maximum-Head-Change  Column Row Layer    Maximum-Flux-Residual          L2-NORM 
          0                 1           2             4    7     1       0.7828752369E-02       4    7    1         0.4121210524E+00      0.9955474932E+00
          0                 2           2             7   13     1      -0.2353597918E-02       7   13    1        -0.1305959638E+00      0.1621756197E+00
          0                 3           2             4    7     1      -0.6960556703E-01       5    8    1        -0.3737091560E+01      0.9193365038E+01
          0                 4           2             4    7     1       0.7250500553E-01       5    6    1         0.4000638733E+01      0.9799631062E+01
          0                 5           2             4    7     1      -0.2885759060E-02       4    8    1        -0.1636783750E+00      0.4009172506E+00
          0                 6           1             4    7     1       0.3560902464E-04       4    8    1         0.2075868557E-02      0.5084686413E-02

    ------------------------------------------------
       NWT REQUIRED            6 OUTER ITERATIONS 
       AND A TOTAL OF         11 INNER ITERATIONS.
    ------------------------------------------------

 NO OUTPUT CONTROL FOR STRESS PERIOD   19   TIME STEP    9
 
 SOLVING FOR HEAD 
                                                   Max.-Head-Change                         Max.-Flux-Residual
  Residual-Control   Outer-Iter.   Inner-Iter.     Column Row Layer    Maximum-Head-Change  Column Row Layer    Maximum-Flux-Residual          L2-NORM 
          0                 1           2             4    7     1       0.7726861917E-02       4    7    1         0.4067734042E+00      0.9998931892E+00
          0                 2           2             7   13     1      -0.2353978121E-02       7   13    1        -0.1306149044E+00      0.1623255814E+00
          0                 3           2             4    7     1      -0.6960750109E-01       5    8    1        -0.3737194516E+01      0.9193691812E+01
          0                 4           2             4    7     1       0.7250634380E-01       5    6    1         0.4000713167E+01      0.9799813700E+01
          0                 5           2             4    7     1      -0.2885812325E-02       4    8    1        -0.1636814190E+00      0.4009247259E+00
          0                 6           1             4    7     1       0.3560968195E-04       4    8    1         0.2075907145E-02      0.5084778979E-02

    ------------------------------------------------
       NWT REQUIRED            6 OUTER ITERATIONS 
       AND A TOTAL OF         11 INNER ITERATIONS.
    ------------------------------------------------

 NO OUTPUT CONTROL FOR STRESS PERIOD   19   TIME STEP   10
 
 SOLVING FOR HEAD 
                                                   Max.-Head-Change                         Max.-Flux-Residual
  Residual-Control   Outer-Iter.   Inner-Iter.     Column Row Layer    Maximum-Head-Change  Column Row Layer    Maximum-Flux-Residual          L2-NORM 
          0                 1           2             4    7     1       0.7625970946E-02       4    7    1         0.4014756786E+00      0.1004259065E+01
          0                 2           2             7   13     1      -0.2354436455E-02       7   13    1        -0.1306383091E+00      0.1624879626E+00
          0                 3           2             4    7     1      -0.6960940174E-01       5    8    1        -0.3737294566E+01      0.9194007514E+01
          0                 4           2             4    7     1       0.7250765391E-01       5    6    1         0.4000785969E+01      0.9799992401E+01
          0                 5           2             4    7     1      -0.2885864469E-02       4    8    1        -0.1636843983E+00      0.4009320270E+00
          0                 6           1             4    7     1       0.3561032537E-04       4    8    1         0.2075944949E-02      0.5084867783E-02

    ------------------------------------------------
       NWT REQUIRED            6 OUTER ITERATIONS 
       AND A TOTAL OF         11 INNER ITERATIONS.
    ------------------------------------------------

 NO OUTPUT CONTROL FOR STRESS PERIOD   19   TIME STEP   11
 
 SOLVING FOR HEAD 
                                                   Max.-Head-Change                         Max.-Flux-Residual
  Residual-Control   Outer-Iter.   Inner-Iter.     Column Row Layer    Maximum-Head-Change  Column Row Layer    Maximum-Flux-Residual          L2-NORM 
          0                 1           2             4    7     1       0.7526391193E-02       4    7    1         0.3962445673E+00      0.1008539073E+01
          0                 2           2             7   13     1      -0.2354955810E-02       7   13    1        -0.1306651794E+00      0.1626677641E+00
          0                 3           2             4    7     1      -0.6961074238E-01       5    8    1        -0.3737392384E+01      0.9194312081E+01
          0                 4           2             4    7     1       0.7250839890E-01       5    6    1         0.4000857670E+01      0.9799254424E+01
          0                 5           2             4    7     1      -0.2885902421E-02       4    8    1        -0.1637244954E+00      0.4009545416E+00
          0                 6           1             4    7     1       0.3561079247E-04       4    8    1         0.2076452227E-02      0.5085168280E-02

    ------------------------------------------------
       NWT REQUIRED            6 OUTER ITERATIONS 
       AND A TOTAL OF         11 INNER ITERATIONS.
    ------------------------------------------------

 NO OUTPUT CONTROL FOR STRESS PERIOD   19   TIME STEP   12
 
 SOLVING FOR HEAD 
                                                   Max.-Head-Change                         Max.-Flux-Residual
  Residual-Control   Outer-Iter.   Inner-Iter.     Column Row Layer    Maximum-Head-Change  Column Row Layer    Maximum-Flux-Residual          L2-NORM 
          0                 1           2             4    7     1       0.7427800847E-02       4    7    1         0.3910661858E+00      0.1012642238E+01
          0                 2           2             7   13     1      -0.2355563023E-02       7   13    1        -0.1306970396E+00      0.1628262486E+00
          0                 3           2             4    7     1      -0.6961258353E-01       5    8    1        -0.3737487569E+01      0.9194609743E+01
          0                 4           2             4    7     1       0.7250970895E-01       5    6    1         0.4000927750E+01      0.9799503807E+01
          0                 5           2             4    7     1      -0.2886000509E-02       4    8    1        -0.1639293339E+00      0.4010423663E+00
          0                 6           1             4    7     1       0.3561200269E-04       4    8    1         0.2079008422E-02      0.5086207787E-02

    ------------------------------------------------
       NWT REQUIRED            6 OUTER ITERATIONS 
       AND A TOTAL OF         11 INNER ITERATIONS.
    ------------------------------------------------

 NO OUTPUT CONTROL FOR STRESS PERIOD   19   TIME STEP   13
 
 SOLVING FOR HEAD 
                                                   Max.-Head-Change                         Max.-Flux-Residual
  Residual-Control   Outer-Iter.   Inner-Iter.     Column Row Layer    Maximum-Head-Change  Column Row Layer    Maximum-Flux-Residual          L2-NORM 
          0                 1           2             4    7     1       0.7330530495E-02       4    7    1         0.3859548220E+00      0.1016483795E+01
          0                 2           2             7   13     1      -0.2356230726E-02       7   13    1        -0.1307323356E+00      0.1629886631E+00
          0                 3           2             4    7     1      -0.6961438853E-01       5    8    1        -0.3737580096E+01      0.9194896481E+01
          0                 4           2             4    7     1       0.7251098968E-01       5    6    1         0.4000996212E+01      0.9799747622E+01
          0                 5           2             4    7     1      -0.2886096438E-02       4    8    1        -0.1641296874E+00      0.4011283643E+00
          0                 6           1             4    7     1       0.3561318648E-04       4    8    1         0.2081549286E-02      0.5087268658E-02

    ------------------------------------------------
       NWT REQUIRED            6 OUTER ITERATIONS 
       AND A TOTAL OF         11 INNER ITERATIONS.
    ------------------------------------------------

 NO OUTPUT CONTROL FOR STRESS PERIOD   19   TIME STEP   14
 
 SOLVING FOR HEAD 
                                                   Max.-Head-Change                         Max.-Flux-Residual
  Residual-Control   Outer-Iter.   Inner-Iter.     Column Row Layer    Maximum-Head-Change  Column Row Layer    Maximum-Flux-Residual          L2-NORM 
          0                 1           2             4    7     1       0.7234053999E-02       4    7    1         0.3808818478E+00      0.1020074946E+01
          0                 2           2             7   13     1      -0.2356957031E-02       7   13    1        -0.1307709727E+00      0.1631458894E+00
          0                 3           2             4    7     1      -0.6961617038E-01       5    8    1        -0.3737670508E+01      0.9195174752E+01
          0                 4           2             4    7     1       0.7251225056E-01       5    6    1         0.4001063580E+01      0.9799988607E+01
          0                 5           2             4    7     1      -0.2886190591E-02       4    8    1        -0.1643257068E+00      0.4012147210E+00
          0                 6           1             4    7     1       0.3561434875E-04       4    8    1         0.2084035210E-02      0.5088365525E-02

    ------------------------------------------------
       NWT REQUIRED            6 OUTER ITERATIONS 
       AND A TOTAL OF         11 INNER ITERATIONS.
    ------------------------------------------------

 NO OUTPUT CONTROL FOR STRESS PERIOD   19   TIME STEP   15
 
 SOLVING FOR HEAD 
                                                   Max.-Head-Change                         Max.-Flux-Residual
  Residual-Control   Outer-Iter.   Inner-Iter.     Column Row Layer    Maximum-Head-Change  Column Row Layer    Maximum-Flux-Residual          L2-NORM 
          0                 1           2             4    7     1       0.7138951556E-02       4   13    1         0.3901518741E+00      0.1023382304E+01
          0                 2           2             7   13     1      -0.2357729536E-02       7   13    1        -0.1308122574E+00      0.1632938632E+00
          0                 3           2             4    7     1      -0.6961791188E-01       5    8    1        -0.3737758375E+01      0.9195443745E+01
          0                 4           2             4    7     1       0.7251347756E-01       5    6    1         0.4001129093E+01      0.9800224179E+01
          0                 5           2             4    7     1      -0.2886282441E-02       4    8    1        -0.1645174545E+00      0.4012993623E+00
          0                 6           1             4    7     1       0.3561548213E-04       4    8    1         0.2086466938E-02      0.5089438491E-02

    ------------------------------------------------
       NWT REQUIRED            6 OUTER ITERATIONS 
       AND A TOTAL OF         11 INNER ITERATIONS.
    ------------------------------------------------

 NO OUTPUT CONTROL FOR STRESS PERIOD   19   TIME STEP   16
 
 SOLVING FOR HEAD 
                                                   Max.-Head-Change                         Max.-Flux-Residual
  Residual-Control   Outer-Iter.   Inner-Iter.     Column Row Layer    Maximum-Head-Change  Column Row Layer    Maximum-Flux-Residual          L2-NORM 
          0                 1           2             4    7     1       0.7044959871E-02       4   13    1         0.3992482660E+00      0.1026398593E+01
          0                 2           2             7   13     1      -0.2358564197E-02       7   13    1        -0.1308570605E+00      0.1634323549E+00
          0                 3           2             4    7     1      -0.6961962811E-01       5    8    1        -0.3737844238E+01      0.9195705108E+01
          0                 4           2             4    7     1       0.7251468467E-01       5    6    1         0.4001193520E+01      0.9800454786E+01
          0                 5           2             4    7     1      -0.2886372571E-02       4    8    1        -0.1647050670E+00      0.4013823241E+00
          0                 6           1             4    7     1       0.3561659422E-04       4    8    1         0.2088846243E-02      0.5090492737E-02

    ------------------------------------------------
       NWT REQUIRED            6 OUTER ITERATIONS 
       AND A TOTAL OF         11 INNER ITERATIONS.
    ------------------------------------------------

 NO OUTPUT CONTROL FOR STRESS PERIOD   19   TIME STEP   17
 
 SOLVING FOR HEAD 
                                                   Max.-Head-Change                         Max.-Flux-Residual
  Residual-Control   Outer-Iter.   Inner-Iter.     Column Row Layer    Maximum-Head-Change  Column Row Layer    Maximum-Flux-Residual          L2-NORM 
          0                 1           2             4   13     1       0.7065553160E-02       4   13    1         0.4075078747E+00      0.1029135362E+01
          0                 2           2             7   13     1      -0.2359419941E-02       7   13    1        -0.1309030938E+00      0.1635604105E+00
          0                 3           2             4    7     1      -0.6962132157E-01       5    8    1        -0.3737928391E+01      0.9195959870E+01
          0                 4           2             4    7     1       0.7251587643E-01       5    6    1         0.4001257111E+01      0.9800681825E+01
          0                 5           2             4    7     1      -0.2886461183E-02       4    8    1        -0.1648886571E+00      0.4014636932E+00
          0                 6           1             4    7     1       0.3561768817E-04       4    8    1         0.2091174518E-02      0.5091518750E-02

    ------------------------------------------------
       NWT REQUIRED            6 OUTER ITERATIONS 
       AND A TOTAL OF         11 INNER ITERATIONS.
    ------------------------------------------------

 NO OUTPUT CONTROL FOR STRESS PERIOD   19   TIME STEP   18
 
 SOLVING FOR HEAD 
                                                   Max.-Head-Change                         Max.-Flux-Residual
  Residual-Control   Outer-Iter.   Inner-Iter.     Column Row Layer    Maximum-Head-Change  Column Row Layer    Maximum-Flux-Residual          L2-NORM 
          0                 1           2             4   13     1       0.7195861217E-02       4   13    1         0.4149962803E+00      0.1031568736E+01
          0                 2           2             7   13     1      -0.2360333772E-02       7   13    1        -0.1309524322E+00      0.1636769562E+00
          0                 3           2             4    7     1      -0.6962298251E-01       5    8    1        -0.3738010280E+01      0.9196206512E+01
          0                 4           2             4    7     1       0.7251703919E-01       5    6    1         0.4001319105E+01      0.9800903469E+01
          0                 5           2             4    7     1      -0.2886547756E-02       4    8    1        -0.1650682918E+00      0.4015434335E+00
          0                 6           1             4    7     1       0.3561875658E-04       4    8    1         0.2093452642E-02      0.5092530262E-02

    ------------------------------------------------
       NWT REQUIRED            6 OUTER ITERATIONS 
       AND A TOTAL OF         11 INNER ITERATIONS.
    ------------------------------------------------

 NO OUTPUT CONTROL FOR STRESS PERIOD   19   TIME STEP   19
 
 SOLVING FOR HEAD 
                                                   Max.-Head-Change                         Max.-Flux-Residual
  Residual-Control   Outer-Iter.   Inner-Iter.     Column Row Layer    Maximum-Head-Change  Column Row Layer    Maximum-Flux-Residual          L2-NORM 
          0                 1           2             4   13     1       0.7314234491E-02       4   13    1         0.4217950590E+00      0.1033724704E+01
          0                 2           2             7   13     1      -0.2361284465E-02       7   13    1        -0.1310038616E+00      0.1637829615E+00
          0                 3           2             4    7     1      -0.6962461421E-01       5    8    1        -0.3738090430E+01      0.9196446598E+01
          0                 4           2             4    7     1       0.7251818194E-01       5    6    1         0.4001380024E+01      0.9801121010E+01
          0                 5           2             4    7     1      -0.2886632670E-02       4    8    1        -0.1652440803E+00      0.4016216360E+00
          0                 6           1             4    7     1       0.3561980460E-04       4    8    1         0.2095681993E-02      0.5093527369E-02

    ------------------------------------------------
       NWT REQUIRED            6 OUTER ITERATIONS 
       AND A TOTAL OF         11 INNER ITERATIONS.
    ------------------------------------------------

 NO OUTPUT CONTROL FOR STRESS PERIOD   19   TIME STEP   20
 
 SOLVING FOR HEAD 
                                                   Max.-Head-Change                         Max.-Flux-Residual
  Residual-Control   Outer-Iter.   Inner-Iter.     Column Row Layer    Maximum-Head-Change  Column Row Layer    Maximum-Flux-Residual          L2-NORM 
          0                 1           2             4   13     1       0.7421780764E-02       4   13    1         0.4279686389E+00      0.1035594972E+01
          0                 2           2             7   13     1      -0.2362247399E-02       7   13    1        -0.1310560357E+00      0.1638762718E+00
          0                 3           2             4    7     1      -0.6962622222E-01       5    8    1        -0.3738168767E+01      0.9196680270E+01
          0                 4           2             4    7     1       0.7251930496E-01       5    6    1         0.4001439862E+01      0.9801333085E+01
          0                 5           2             4    7     1      -0.2886715952E-02       4    8    1        -0.1654122906E+00      0.4016945779E+00
          0                 6           1             4    7     1       0.3562083246E-04       4    8    1         0.2098054184E-02      0.5094738244E-02

    ------------------------------------------------
       NWT REQUIRED            6 OUTER ITERATIONS 
       AND A TOTAL OF         11 INNER ITERATIONS.
    ------------------------------------------------

 NO OUTPUT CONTROL FOR STRESS PERIOD   19   TIME STEP   21
 
 SOLVING FOR HEAD 
                                                   Max.-Head-Change                         Max.-Flux-Residual
  Residual-Control   Outer-Iter.   Inner-Iter.     Column Row Layer    Maximum-Head-Change  Column Row Layer    Maximum-Flux-Residual          L2-NORM 
          0                 1           2             4   13     1       0.7519726922E-02       4   13    1         0.4335881168E+00      0.1037207904E+01
          0                 2           2             7   13     1      -0.2363262347E-02       7   13    1        -0.1311111559E+00      0.1639600315E+00
          0                 3           2             4    7     1      -0.6962779388E-01       5    8    1        -0.3738244858E+01      0.9196906585E+01
          0                 4           2             4    7     1       0.7252039885E-01       5    6    1         0.4001498121E+01      0.9801541271E+01
          0                 5           2             4    7     1      -0.2886797254E-02       4    8    1        -0.1655806738E+00      0.4017695618E+00
          0                 6           1             4    7     1       0.3562183612E-04       4    8    1         0.2100229478E-02      0.5095767764E-02

    ------------------------------------------------
       NWT REQUIRED            6 OUTER ITERATIONS 
       AND A TOTAL OF         11 INNER ITERATIONS.
    ------------------------------------------------

 NO OUTPUT CONTROL FOR STRESS PERIOD   19   TIME STEP   22
 
 SOLVING FOR HEAD 
                                                   Max.-Head-Change                         Max.-Flux-Residual
  Residual-Control   Outer-Iter.   Inner-Iter.     Column Row Layer    Maximum-Head-Change  Column Row Layer    Maximum-Flux-Residual          L2-NORM 
          0                 1           2             4   13     1       0.7608742545E-02       4   13    1         0.4386920148E+00      0.1038564154E+01
          0                 2           2             7   13     1      -0.2364303196E-02       7   13    1        -0.1311677439E+00      0.1640330391E+00
          0                 3           2             4    7     1      -0.6962934878E-01       5    8    1        -0.3738319813E+01      0.9197128286E+01
          0                 4           2             4    7     1       0.7252148222E-01       5    6    1         0.4001555823E+01      0.9801746719E+01
          0                 5           2             4    7     1      -0.2886877334E-02       4    8    1        -0.1657455017E+00      0.4018431431E+00
          0                 6           1             4    7     1       0.3562282455E-04       4    8    1         0.2102358803E-02      0.5096788048E-02

    ------------------------------------------------
       NWT REQUIRED            6 OUTER ITERATIONS 
       AND A TOTAL OF         11 INNER ITERATIONS.
    ------------------------------------------------

 NO OUTPUT CONTROL FOR STRESS PERIOD   19   TIME STEP   23
 
 SOLVING FOR HEAD 
                                                   Max.-Head-Change                         Max.-Flux-Residual
  Residual-Control   Outer-Iter.   Inner-Iter.     Column Row Layer    Maximum-Head-Change  Column Row Layer    Maximum-Flux-Residual          L2-NORM 
          0                 1           2             4   13     1       0.7689865203E-02       4   13    1         0.4433406846E+00      0.1039681973E+01
          0                 2           2             7   13     1      -0.2365352986E-02       7   13    1        -0.1312248869E+00      0.1640948245E+00
          0                 3           2             4    7     1      -0.6963087804E-01       5    8    1        -0.3738393073E+01      0.9197344158E+01
          0                 4           2             4    7     1       0.7252254584E-01       5    6    1         0.4001612452E+01      0.9801948214E+01
          0                 5           2             4    8     1      -0.2888952279E-02       4    8    1        -0.1659068310E+00      0.4019152833E+00
          0                 6           1             4    8     1       0.3564802341E-04       4    8    1         0.2104442971E-02      0.5097791764E-02

    ------------------------------------------------
       NWT REQUIRED            6 OUTER ITERATIONS 
       AND A TOTAL OF         11 INNER ITERATIONS.
    ------------------------------------------------

 NO OUTPUT CONTROL FOR STRESS PERIOD   19   TIME STEP   24
 
 SOLVING FOR HEAD 
                                                   Max.-Head-Change                         Max.-Flux-Residual
  Residual-Control   Outer-Iter.   Inner-Iter.     Column Row Layer    Maximum-Head-Change  Column Row Layer    Maximum-Flux-Residual          L2-NORM 
          0                 1           2             4   13     1       0.7763793524E-02       4   13    1         0.4475745934E+00      0.1040581937E+01
          0                 2           2             7   13     1      -0.2366439537E-02       7   13    1        -0.1312841186E+00      0.1641484686E+00
          0                 3           2             4    7     1      -0.6963237537E-01       5    8    1        -0.3738464550E+01      0.9197553860E+01
          0                 4           2             4    7     1       0.7252358502E-01       5    6    1         0.4001667756E+01      0.9802145165E+01
          0                 5           2             4    8     1      -0.2891601014E-02       4    8    1        -0.1660647332E+00      0.4019860010E+00
          0                 6           1             4    8     1       0.3568070584E-04       4    8    1         0.2106482828E-02      0.5098785207E-02

    ------------------------------------------------
       NWT REQUIRED            6 OUTER ITERATIONS 
       AND A TOTAL OF         11 INNER ITERATIONS.
    ------------------------------------------------

 NO OUTPUT CONTROL FOR STRESS PERIOD   19   TIME STEP   25
 
 SOLVING FOR HEAD 
                                                   Max.-Head-Change                         Max.-Flux-Residual
  Residual-Control   Outer-Iter.   Inner-Iter.     Column Row Layer    Maximum-Head-Change  Column Row Layer    Maximum-Flux-Residual          L2-NORM 
          0                 1           2             4   13     1       0.7831303000E-02       4   13    1         0.4514385474E+00      0.1041269255E+01
          0                 2           2             7   13     1      -0.2367546726E-02       7   13    1        -0.1313445430E+00      0.1641919539E+00
          0                 3           2             4    7     1      -0.6963385157E-01       5    8    1        -0.3738534636E+01      0.9197758333E+01
          0                 4           2             4    7     1       0.7252402539E-01       5    6    1         0.4001722256E+01      0.9802290312E+01
          0                 5           2             4    7     1      -0.2886516902E-02       4    8    1        -0.1637229150E+00      0.4010219397E+00
          0                 6           1             4    7     1       0.3561837416E-04       4    8    1         0.2076390675E-02      0.5085913862E-02

    ------------------------------------------------
       NWT REQUIRED            6 OUTER ITERATIONS 
       AND A TOTAL OF         11 INNER ITERATIONS.
    ------------------------------------------------

 NO OUTPUT CONTROL FOR STRESS PERIOD   19   TIME STEP   26
 
 SOLVING FOR HEAD 
                                                   Max.-Head-Change                         Max.-Flux-Residual
  Residual-Control   Outer-Iter.   Inner-Iter.     Column Row Layer    Maximum-Head-Change  Column Row Layer    Maximum-Flux-Residual          L2-NORM 
          0                 1           2             4   13     1       0.7892822372E-02       4   13    1         0.4549572723E+00      0.1041766118E+01
          0                 2           2             7   13     1      -0.2368655893E-02       7   13    1        -0.1314051006E+00      0.1642273455E+00
          0                 3           2             4    7     1      -0.6963530036E-01       5    8    1        -0.3738603238E+01      0.9197958821E+01
          0                 4           2             4    7     1       0.7252499484E-01       5    6    1         0.4001775690E+01      0.9802421987E+01
          0                 5           2             4    7     1      -0.2886555487E-02       4    8    1        -0.1637251150E+00      0.4010273340E+00
          0                 6           1             4    7     1       0.3561885022E-04       4    8    1         0.2076418567E-02      0.5085986004E-02

    ------------------------------------------------
       NWT REQUIRED            6 OUTER ITERATIONS 
       AND A TOTAL OF         11 INNER ITERATIONS.
    ------------------------------------------------

 NO OUTPUT CONTROL FOR STRESS PERIOD   19   TIME STEP   27
 
 SOLVING FOR HEAD 
                                                   Max.-Head-Change                         Max.-Flux-Residual
  Residual-Control   Outer-Iter.   Inner-Iter.     Column Row Layer    Maximum-Head-Change  Column Row Layer    Maximum-Flux-Residual          L2-NORM 
          0                 1           2             4   13     1       0.7949043935E-02       4   13    1         0.4581708234E+00      0.1042080584E+01
          0                 2           2             7   13     1      -0.2369795365E-02       7   13    1        -0.1314673828E+00      0.1642551788E+00
          0                 3           2             4    7     1      -0.6963672811E-01       5    8    1        -0.3738670507E+01      0.9198154280E+01
          0                 4           2             4    7     1       0.7252594999E-01       5    6    1         0.4001828316E+01      0.9802551634E+01
          0                 5           2             4    7     1      -0.2886593503E-02       4    8    1        -0.1637272824E+00      0.4010326309E+00
          0                 6           1             4    7     1       0.3561931935E-04       4    8    1         0.2076446050E-02      0.5086052316E-02

    ------------------------------------------------
       NWT REQUIRED            6 OUTER ITERATIONS 
       AND A TOTAL OF         11 INNER ITERATIONS.
    ------------------------------------------------

 NO OUTPUT CONTROL FOR STRESS PERIOD   19   TIME STEP   28
 
 SOLVING FOR HEAD 
                                                   Max.-Head-Change                         Max.-Flux-Residual
  Residual-Control   Outer-Iter.   Inner-Iter.     Column Row Layer    Maximum-Head-Change  Column Row Layer    Maximum-Flux-Residual          L2-NORM 
          0                 1           2             4   13     1       0.7490597935E-02       4   13    1         0.4317199613E+00      0.1002746096E+01
          0                 2           2             7   13     1      -0.2243861932E-02       7   13    1        -0.1244841677E+00      0.1565829253E+00
          0                 3           2             4    7     1      -0.6963813494E-01       5    8    1        -0.3738736473E+01      0.9198221678E+01
          0                 4           2             4    7     1       0.7252689083E-01       5    6    1         0.4001880144E+01      0.9802686571E+01
          0                 5           2             4    7     1      -0.2886630950E-02       4    8    1        -0.1637294171E+00      0.4010386283E+00
          0                 6           1             4    7     1       0.3561978152E-04       4    8    1         0.2076473129E-02      0.5086206062E-02

    ------------------------------------------------
       NWT REQUIRED            6 OUTER ITERATIONS 
       AND A TOTAL OF         11 INNER ITERATIONS.
    ------------------------------------------------

 NO OUTPUT CONTROL FOR STRESS PERIOD   19   TIME STEP   29
 
 SOLVING FOR HEAD 
                                                   Max.-Head-Change                         Max.-Flux-Residual
  Residual-Control   Outer-Iter.   Inner-Iter.     Column Row Layer    Maximum-Head-Change  Column Row Layer    Maximum-Flux-Residual          L2-NORM 
          0                 1           2             4   13     1       0.6944857563E-02       4   13    1         0.4002580547E+00      0.9570350341E+00
          0                 2           2             7   13     1      -0.2084420670E-02       7   13    1        -0.1156431218E+00      0.1471341585E+00
          0                 3           2             4    7     1      -0.6963951018E-01       5    8    1        -0.3738800991E+01      0.9198259014E+01
          0                 4           2             4    7     1       0.7252780805E-01       5    6    1         0.4001930669E+01      0.9802830155E+01
          0                 5           2             4    7     1      -0.2886667457E-02       4    8    1        -0.1637314980E+00      0.4010459007E+00
          0                 6           1             4    7     1       0.3562023183E-04       4    8    1         0.2076499522E-02      0.5086551169E-02

    ------------------------------------------------
       NWT REQUIRED            6 OUTER ITERATIONS 
       AND A TOTAL OF         11 INNER ITERATIONS.
    ------------------------------------------------

 NO OUTPUT CONTROL FOR STRESS PERIOD   19   TIME STEP   30



 STREAM LISTING     PERIOD     19   STEP       30

 LAYER ROW COL. STREAM  RCH.  FLOW INTO     FLOW TO   FLOW OUT OF   OVRLND.     DIRECT     STREAM       STREAM     STREAM     STREAM   STREAMBED  STREAMBED
                SEG.NO.  NO.  STRM. RCH.    AQUIFER    STRM. RCH.    RUNOFF     PRECIP       ET          HEAD       DEPTH      WIDTH   CONDCTNC.   GRADIENT

   1    1    1     1     1    4.0501E+01  3.0566E-01   4.0195E+01  0.000E+00  0.000E+00  0.000E+00  1.09438E+03  1.335E+00  1.567E+01  7.051E-02  1.445E+00
   1    2    2     1     2    4.0195E+01  4.7341E-01   3.9722E+01  0.000E+00  0.000E+00  0.000E+00  1.08939E+03  1.332E+00  1.561E+01  1.093E-01  1.444E+00
   1    3    3     1     3    3.9722E+01  4.0378E-01   3.9318E+01  0.000E+00  0.000E+00  0.000E+00  1.08375E+03  1.329E+00  1.555E+01  9.328E-02  1.443E+00
   1    3    4     1     4    3.9318E+01  3.7185E-01   3.8946E+01  0.000E+00  0.000E+00  0.000E+00  1.07873E+03  1.326E+00  1.549E+01  8.596E-02  1.442E+00
   1    4    5     2     1    3.6946E+01  3.5272E-01   3.6593E+01  0.000E+00  0.000E+00  0.000E+00  1.07346E+03  1.522E+00  1.200E+01  7.800E-02  1.507E+00
   1    5    6     2     2    3.6593E+01  2.7086E-01   3.6322E+01  0.000E+00  0.000E+00  0.000E+00  1.06802E+03  1.514E+00  1.200E+01  6.000E-02  1.505E+00
   1    6    6     2     3    3.6322E+01  2.7045E-01   3.6052E+01  0.000E+00  0.000E+00  0.000E+00  1.06330E+03  1.508E+00  1.200E+01  6.000E-02  1.503E+00
   1    7    6     2     4    3.6052E+01  2.7005E-01   3.5782E+01  0.000E+00  0.000E+00  0.000E+00  1.05858E+03  1.501E+00  1.200E+01  6.000E-02  1.500E+00
   1    8    6     2     5    3.5782E+01  2.6964E-01   3.5512E+01  0.000E+00  0.000E+00  0.000E+00  1.05385E+03  1.494E+00  1.200E+01  6.000E-02  1.498E+00
   1    3    5     3     1    2.0000E+00  2.8252E-01   1.7175E+00  0.000E+00  0.000E+00  0.000E+00  1.07555E+03  1.909E+00  9.636E+00  7.227E-02  1.955E+00
   1    3    6     3     2    1.7175E+00  2.4905E-01   1.4684E+00  0.000E+00  0.000E+00  0.000E+00  1.07264E+03  1.727E+00  8.909E+00  6.682E-02  1.864E+00
   1    3    7     3     3    1.4684E+00  1.9718E-01   1.2712E+00  0.000E+00  0.000E+00  0.000E+00  1.06987E+03  1.555E+00  8.218E+00  5.547E-02  1.777E+00
   1    4    8     3     4    1.2712E+00  2.2567E-01   1.0456E+00  0.000E+00  0.000E+00  0.000E+00  1.06682E+03  1.364E+00  7.455E+00  6.709E-02  1.682E+00
   1    5    8     3     5    1.0456E+00  1.5790E-01   8.8768E-01  0.000E+00  0.000E+00  0.000E+00  1.06362E+03  1.164E+00  6.655E+00  4.991E-02  1.582E+00
   1    6    8     3     6    8.8768E-01  5.5980E-02   8.3170E-01  0.000E+00  0.000E+00  0.000E+00  1.06158E+03  1.036E+00  6.145E+00  1.844E-02  1.518E+00
   1    5   10     4     1    1.0000E+01  9.0919E-02   9.9091E+00  0.000E+00  0.000E+00  0.000E+00  1.07836E+03  6.368E-01  1.000E+01  2.500E-02  1.212E+00
   1    5    9     4     2    9.9091E+00  1.8158E-01   9.7275E+00  0.000E+00  0.000E+00  0.000E+00  1.07154E+03  6.315E-01  1.000E+01  5.000E-02  1.211E+00
   1    6    8     4     3    9.7275E+00  1.2689E-01   9.6006E+00  0.000E+00  0.000E+00  0.000E+00  1.06381E+03  6.256E-01  1.000E+01  3.500E-02  1.209E+00
   1    6    8     5     1    1.0432E+01  2.2686E-01   1.0205E+01  0.000E+00  0.000E+00  0.000E+00  1.05868E+03  6.790E-01  1.542E+01  6.166E-02  1.226E+00
   1    7    7     5     2    1.0205E+01  2.7894E-01   9.9265E+00  0.000E+00  0.000E+00  0.000E+00  1.05417E+03  6.732E-01  1.519E+01  7.594E-02  1.224E+00
   1    8    7     5     3    9.9265E+00  1.9221E-01   9.7343E+00  0.000E+00  0.000E+00  0.000E+00  1.04992E+03  6.676E-01  1.497E+01  5.241E-02  1.223E+00
   1    8    6     5     4    9.7343E+00  1.3577E-01   9.5985E+00  0.000E+00  0.000E+00  0.000E+00  1.04691E+03  6.637E-01  1.482E+01  3.706E-02  1.221E+00
   1    9    6     6     1    2.2670E+01  2.4886E-01   2.2421E+01  0.000E+00  0.000E+00  0.000E+00  1.04387E+03  1.148E+00  1.200E+01  6.000E-02  1.383E+00
   1   10    7     6     2    2.2421E+01  2.4840E-01   2.2172E+01  0.000E+00  0.000E+00  0.000E+00  1.03932E+03  1.140E+00  1.200E+01  6.000E-02  1.380E+00
   1   11    7     6     3    2.2172E+01  2.4794E-01   2.1924E+01  0.000E+00  0.000E+00  0.000E+00  1.03477E+03  1.132E+00  1.200E+01  6.000E-02  1.377E+00
   1   12    7     6     4    2.1924E+01  2.4748E-01   2.1677E+01  0.000E+00  0.000E+00  0.000E+00  1.03022E+03  1.125E+00  1.200E+01  6.000E-02  1.375E+00
   1   13    7     6     5    2.1677E+01 -2.4329E-02   2.1701E+01  0.000E+00  0.000E+00  0.000E+00  1.02703E+03  1.121E+00  1.200E+01  2.400E-01 -3.379E-02
   1   14    9     7     1    1.5000E+02  1.3369E+00   1.4866E+02  0.000E+00  0.000E+00  0.000E+00  1.03987E+03  2.288E+00  5.529E+01  5.593E-01  7.967E-01
   1   13    8     7     2    1.4866E+02  1.8225E+00   1.4684E+02  0.000E+00  0.000E+00  0.000E+00  1.03478E+03  2.279E+00  5.526E+01  6.148E-01  9.882E-01
   1   13    7     7     3    1.4684E+02  1.4287E+00   1.4541E+02  0.000E+00  0.000E+00  0.000E+00  1.02969E+03  2.271E+00  5.522E+01  5.585E-01  8.527E-01
   1   13    6     8     1    1.6711E+02  8.5673E-01   1.6626E+02  0.000E+00  0.000E+00  0.000E+00  1.02481E+03  2.930E+00  4.249E+01  4.330E-01  6.595E-01
   1   13    5     8     2    1.6626E+02  1.1334E-01   1.6614E+02  0.000E+00  0.000E+00  0.000E+00  1.01855E+03  2.927E+00  4.245E+01  4.325E-01  8.734E-02
   1   13    4     8     3    1.6614E+02 -2.6909E+00   1.6883E+02  0.000E+00  0.000E+00  0.000E+00  1.01231E+03  2.936E+00  4.257E+01  4.338E+00 -2.068E-01
   1   13    3     8     4    1.6883E+02 -3.8063E+00   1.7264E+02  0.000E+00  0.000E+00  0.000E+00  1.00608E+03  2.957E+00  4.288E+01  4.369E+00 -2.904E-01
   1   13    2     8     5    1.7264E+02 -2.6894E+00   1.7533E+02  0.000E+00  0.000E+00  0.000E+00  9.99853E+02  2.978E+00  4.318E+01  4.400E+00 -2.037E-01
   1   13    1     8     6    1.7533E+02 -2.0723E+00   1.7740E+02  0.000E+00  0.000E+00  0.000E+00  9.94868E+02  2.993E+00  4.340E+01  2.654E+00 -2.603E-01
   1    8    6     9     1    2.2441E+01  0.0000E+00   2.2441E+01  0.000E+00  0.000E+00  0.000E+00  1.08243E+03  3.680E+00  4.000E+00  0.000E+00  2.227E+00
   1    8    5     9     2    2.2441E+01  0.0000E+00   2.2441E+01  0.000E+00  0.000E+00  0.000E+00  1.08193E+03  3.680E+00  4.000E+00  0.000E+00  2.227E+00





UNSATURATED ZONE PACKAGE VOLUMETRIC BUDGET FOR  TIME STEP    30 STRESS PERIOD   19
  ------------------------------------------------------------------------------



     CUMULATIVE VOLUMES      L**3       RATES FOR THIS TIME STEP      L**3/T
     ------------------                 ------------------------

           IN:                                      IN:
           ---                                      ---
        INFILTRATION =   610616295.8976          INFILTRATION =          23.2890

          OUT:                                     OUT:
          ----                                     ----
              UZF ET =   531858068.7642                UZF ET =          23.3175
        UZF RECHARGE =       73224.0000          UZF RECHARGE =       0.0000E+00

            IN - OUT =    78685003.1334              IN - OUT =      -2.8469E-02

          STORAGE:                                 STORAGE:
          --------                                 --------
      STORAGE CHANGE =    78720765.8083        STORAGE CHANGE =      -2.8470E-02

 PERCENT DISCREPANCY IS DIFFERENCE BETWEEN IN-OUT MINUS CHANGE IN STORAGE
 DIVIDED BY THE AVERAGE OF IN AND OUT TIMES 100

 PERCENT DISCREPANCY =          -0.00     PERCENT DISCREPANCY =           0.00






1
  VOLUMETRIC BUDGET FOR AGRICULTURAL FIELDS AT  END OF TIME STEP   30, STRESS PERIOD  19
  ------------------------------------------------------------------------------

     CUMULATIVE VOLUMES      L**3       RATES FOR THIS TIME STEP      L**3/T
     ------------------                 ------------------------

           IN:                                      IN:
           ---                                      ---
           AG WELLS      =   124287000.0000             AG WELLS      =           0.0000
      DIVERSION SEGMENTS =   446133472.0000        DIVERSION SEGMENTS =          22.4411
           GW IRRIGATION =           0.0000             GW IRRIGATION =           0.0000
           SW IRRIGATION =           0.0000             SW IRRIGATION =           0.0000
        SYSTEM LOSSES GW =           0.0000          SYSTEM LOSSES GW =           0.0000
        SYSTEM LOSSES SW =           0.0000          SYSTEM LOSSES SW =           0.0000

                TOTAL IN =   570420480.0000                  TOTAL IN =          22.4411

          OUT:                                     OUT:
          ----                                     ----
           AG WELLS      =           0.0000             AG WELLS      =           0.0000
      DIVERSION SEGMENTS =           0.0000        DIVERSION SEGMENTS =           0.0000
           GW IRRIGATION =   124287000.0000             GW IRRIGATION =           0.0000
           SW IRRIGATION =   446142336.0000             SW IRRIGATION =          22.4415
        SYSTEM LOSSES GW =           0.0000          SYSTEM LOSSES GW =           0.0000
        SYSTEM LOSSES SW =           0.0000          SYSTEM LOSSES SW =           0.0000

               TOTAL OUT =   570429312.0000                 TOTAL OUT =          22.4415

                IN - OUT =       -8832.0000                  IN - OUT =      -4.4823E-04

     PERCENT DISCREPANCY =          -0.00         PERCENT DISCREPANCY =          -0.00



1
  VOLUMETRIC BUDGET FOR ENTIRE MODEL AT END OF TIME STEP   30, STRESS PERIOD  19
  ------------------------------------------------------------------------------

     CUMULATIVE VOLUMES      L**3       RATES FOR THIS TIME STEP      L**3/T
     ------------------                 ------------------------

           IN:                                      IN:
           ---                                      ---
             STORAGE     =   215211920.0000               STORAGE     =           1.7785
       CONSTANT HEAD     =           0.0000         CONSTANT HEAD     =           0.0000
     HEAD DEP BOUNDS     =    13552649.0000       HEAD DEP BOUNDS     =           0.2858
      STREAM LEAKAGE     =   570839936.0000        STREAM LEAKAGE     =          11.9407
        UZF RECHARGE     =       73223.9531          UZF RECHARGE     =           0.0000
               GW ET     =           0.0000                 GW ET     =           0.0000
     SURFACE LEAKAGE     =           0.0000       SURFACE LEAKAGE     =           0.0000
           AG WELLS      =           0.0000             AG WELLS      =           0.0000

                TOTAL IN =   799677696.0000                  TOTAL IN =          14.0050

          OUT:                                     OUT:
          ----                                     ----
             STORAGE     =   147856512.0000               STORAGE     =           2.4310
       CONSTANT HEAD     =           0.0000         CONSTANT HEAD     =           0.0000
     HEAD DEP BOUNDS     =    13813302.0000       HEAD DEP BOUNDS     =           0.2907
      STREAM LEAKAGE     =   511505120.0000        STREAM LEAKAGE     =          11.2832
        UZF RECHARGE     =           0.0000          UZF RECHARGE     =           0.0000
               GW ET     =     2220319.5000                 GW ET     =           0.0000
     SURFACE LEAKAGE     =           0.0000       SURFACE LEAKAGE     =           0.0000
           AG WELLS      =   124287000.0000             AG WELLS      =           0.0000

               TOTAL OUT =   799682176.0000                 TOTAL OUT =          14.0048

                IN - OUT =       -4480.0000                  IN - OUT =       1.8978E-04

     PERCENT DISCREPANCY =          -0.00         PERCENT DISCREPANCY =           0.00






         TIME SUMMARY AT END OF TIME STEP   30 IN STRESS PERIOD   19
                    SECONDS     MINUTES      HOURS       DAYS        YEARS
                    -----------------------------------------------------------
   TIME STEP LENGTH  87667.      1461.1      24.352      1.0147     2.77799E-03
 STRESS PERIOD TIME 2.63000E+06  43833.      730.56      30.440     8.33397E-02
         TOTAL TIME 4.74265E+07 7.90442E+05  13174.      548.92      1.5029    
1
1
                            STRESS PERIOD NO.   20, LENGTH =   2630000.    
                            -----------------------------------------------

                              NUMBER OF TIME STEPS =    30

                               MULTIPLIER FOR DELT =     1.000

                            INITIAL TIME STEP SIZE =   87666.66    

 REUSING NON-PARAMETER GHB CELLS FROM LAST STRESS PERIOD

      2 GHB CELLS

 REUSING STREAM SEGMENT DATA FROM LAST STRESS PERIOD



            AREAL INFILTRATION RATE
 READING ON UNIT   19 WITH FORMAT: (FREE)              

            1           2           3           4           5           6           7           8           9          10
 ........................................................................................................................
   1   1.0000E-10  2.0000E-10   0.000       0.000       0.000       0.000       0.000       0.000       0.000       0.000    
   2   2.0000E-10  1.0000E-10  2.0000E-10   0.000       0.000      8.0000E-10  8.0000E-10  5.0000E-10   0.000       0.000    
   3    0.000      5.0000E-10  1.0000E-10  1.0000E-10  8.0000E-10  8.0000E-10  5.0000E-10  5.0000E-10   0.000       0.000    
   4   8.0000E-10  5.0000E-10  1.0000E-10  1.0000E-10  1.0000E-10  1.0000E-10  1.0000E-10  1.0000E-10  2.0000E-10   0.000    
   5   8.0000E-10  5.0000E-10  1.0000E-10  1.0000E-10  1.0000E-10  1.0000E-10  1.0000E-10  1.0000E-10  1.0000E-10  1.0000E-10
   6   8.0000E-10  5.0000E-10  5.0000E-10  2.0000E-10  2.0000E-10  1.0000E-10  1.0000E-10  1.0000E-10  1.0000E-10  5.0000E-10
   7   8.0000E-10  5.0000E-10  5.0000E-10  2.0000E-10  2.0000E-10  1.0000E-10  1.0000E-10  2.0000E-10  2.0000E-10   0.000    
   8    0.000      5.0000E-10  5.0000E-10  2.0000E-10  2.0000E-10  1.0000E-10  1.0000E-10  2.0000E-10  5.0000E-10   0.000    
   9    0.000      5.0000E-10  5.0000E-10  2.0000E-10  2.0000E-10  1.0000E-10  1.0000E-10  2.0000E-10  5.0000E-10   0.000    
  10    0.000      5.0000E-10  5.0000E-10  2.0000E-10  2.0000E-10  1.0000E-10  1.0000E-10  2.0000E-10  5.0000E-10  8.0000E-10
  11    0.000      1.0000E-10  1.0000E-10  1.0000E-10  1.0000E-10  1.0000E-10  1.0000E-10  2.0000E-10  5.0000E-10   0.000    
  12   1.0000E-10  1.0000E-10  1.0000E-10  1.0000E-10  1.0000E-10  1.0000E-10  1.0000E-10  1.0000E-10  2.0000E-10   0.000    
  13   1.0000E-10  1.0000E-10  2.0000E-10  2.0000E-10  2.0000E-10  2.0000E-10  2.0000E-10  1.0000E-10  1.0000E-10   0.000    
  14    0.000      2.0000E-10  5.0000E-10  5.0000E-10  5.0000E-10  5.0000E-10  5.0000E-10  2.0000E-10  1.0000E-10   0.000    
  15    0.000       0.000      8.0000E-10  8.0000E-10  8.0000E-10  8.0000E-10   0.000       0.000       0.000       0.000    

                  ET RATE =  4.000000E-07

 USING ET EXTINCTION DEPTH FROM PREVIOUS STRESS PERIOD. CURRENT PERIOD IS:      20

 USING EXTINCTION WATER CONTENT FROM PREVIOUS STRESS PERIOD. CURRENT PERIOD IS:      20

 USING AIR ENTRY PRESSURE FROM PREVIOUS STRESS PERIOD. CURRENT PERIOD IS:      20

 USING ROOT PRESSURE HEAD FROM PREVIOUS STRESS PERIOD. CURRENT PERIOD IS:      20

 USING ROOT ACTIVITY FROM PREVIOUS STRESS PERIOD. CURRENT PERIOD IS:      20

 PROCESSING AG STRESS PERIOD DATA

 READING AG STRESS PERIOD DATA

 READING IRRIGATION SEGMENT

 READING IRRIGATION WELL

 READING SUPPLEMENTAL WELL

 END PROCESSING AG STRESS PERIOD DATA OPTIONS
 
 SOLVING FOR HEAD 
                                                   Max.-Head-Change                         Max.-Flux-Residual
  Residual-Control   Outer-Iter.   Inner-Iter.     Column Row Layer    Maximum-Head-Change  Column Row Layer    Maximum-Flux-Residual          L2-NORM 
          0                 1           2             2   13     1      -0.6551769195E-02       4   13    1        -0.3694073527E+00      0.9758925827E+00
          0                 2           2             4    7     1      -0.1753500357E+00       4    7    1        -0.9412527336E+01      0.2303929045E+02
          0                 3           2             4    7     1       0.1193994479E-01       4    7    1         0.6588659349E+00      0.1611603872E+01
          0                 4           2             4    7     1      -0.4751024879E-03       4    7    1        -0.2694770742E-01      0.6591498523E-01
          0                 5           1             4    7     1       0.5858218422E-05       4    7    1         0.3415104404E-03      0.8353460417E-03

    ------------------------------------------------
       NWT REQUIRED            5 OUTER ITERATIONS 
       AND A TOTAL OF          9 INNER ITERATIONS.
    ------------------------------------------------

 OUTPUT CONTROL FOR STRESS PERIOD   20   TIME STEP    1
    PRINT BUDGET
    SAVE BUDGET
    SAVE BUDGET
    SAVE HEAD FOR ALL LAYERS
 UBDSV1 SAVING "         STORAGE" ON UNIT 102 AT TIME STEP  1, STRESS PERIOD  20
 UBDSV2 SAVING "   CONSTANT HEAD" ON UNIT 102 AT TIME STEP  1, STRESS PERIOD  20
 UBDSV1 SAVING "FLOW RIGHT FACE " ON UNIT 102 AT TIME STEP  1, STRESS PERIOD  20
 UBDSV1 SAVING "FLOW FRONT FACE " ON UNIT 102 AT TIME STEP  1, STRESS PERIOD  20

  HEAD DEP BOUNDS   PERIOD   20   STEP     1
 BOUNDARY      1   LAYER   1   ROW    13   COL     1   RATE   -0.290509    
 BOUNDARY      2   LAYER   1   ROW    14   COL     9   RATE    0.285829    



 STREAM LISTING     PERIOD     20   STEP        1

 LAYER ROW COL. STREAM  RCH.  FLOW INTO     FLOW TO   FLOW OUT OF   OVRLND.     DIRECT     STREAM       STREAM     STREAM     STREAM   STREAMBED  STREAMBED
                SEG.NO.  NO.  STRM. RCH.    AQUIFER    STRM. RCH.    RUNOFF     PRECIP       ET          HEAD       DEPTH      WIDTH   CONDCTNC.   GRADIENT

   1    1    1     1     1    4.0501E+01  3.0566E-01   4.0195E+01  0.000E+00  0.000E+00  0.000E+00  1.09438E+03  1.335E+00  1.567E+01  7.051E-02  1.445E+00
   1    2    2     1     2    4.0195E+01  4.7341E-01   3.9722E+01  0.000E+00  0.000E+00  0.000E+00  1.08939E+03  1.332E+00  1.561E+01  1.093E-01  1.444E+00
   1    3    3     1     3    3.9722E+01  4.0378E-01   3.9318E+01  0.000E+00  0.000E+00  0.000E+00  1.08375E+03  1.329E+00  1.555E+01  9.328E-02  1.443E+00
   1    3    4     1     4    3.9318E+01  3.7185E-01   3.8946E+01  0.000E+00  0.000E+00  0.000E+00  1.07873E+03  1.326E+00  1.549E+01  8.596E-02  1.442E+00
   1    4    5     2     1    3.6946E+01  3.5272E-01   3.6593E+01  0.000E+00  0.000E+00  0.000E+00  1.07346E+03  1.522E+00  1.200E+01  7.800E-02  1.507E+00
   1    5    6     2     2    3.6593E+01  2.7086E-01   3.6322E+01  0.000E+00  0.000E+00  0.000E+00  1.06802E+03  1.514E+00  1.200E+01  6.000E-02  1.505E+00
   1    6    6     2     3    3.6322E+01  2.7045E-01   3.6052E+01  0.000E+00  0.000E+00  0.000E+00  1.06330E+03  1.508E+00  1.200E+01  6.000E-02  1.503E+00
   1    7    6     2     4    3.6052E+01  2.7005E-01   3.5782E+01  0.000E+00  0.000E+00  0.000E+00  1.05858E+03  1.501E+00  1.200E+01  6.000E-02  1.500E+00
   1    8    6     2     5    3.5782E+01  2.6964E-01   3.5512E+01  0.000E+00  0.000E+00  0.000E+00  1.05385E+03  1.494E+00  1.200E+01  6.000E-02  1.498E+00
   1    3    5     3     1    2.0000E+00  2.8252E-01   1.7175E+00  0.000E+00  0.000E+00  0.000E+00  1.07555E+03  1.909E+00  9.636E+00  7.227E-02  1.955E+00
   1    3    6     3     2    1.7175E+00  2.4905E-01   1.4684E+00  0.000E+00  0.000E+00  0.000E+00  1.07264E+03  1.727E+00  8.909E+00  6.682E-02  1.864E+00
   1    3    7     3     3    1.4684E+00  1.9718E-01   1.2712E+00  0.000E+00  0.000E+00  0.000E+00  1.06987E+03  1.555E+00  8.218E+00  5.547E-02  1.777E+00
   1    4    8     3     4    1.2712E+00  2.2567E-01   1.0456E+00  0.000E+00  0.000E+00  0.000E+00  1.06682E+03  1.364E+00  7.455E+00  6.709E-02  1.682E+00
   1    5    8     3     5    1.0456E+00  1.5790E-01   8.8768E-01  0.000E+00  0.000E+00  0.000E+00  1.06362E+03  1.164E+00  6.655E+00  4.991E-02  1.582E+00
   1    6    8     3     6    8.8768E-01  5.5980E-02   8.3170E-01  0.000E+00  0.000E+00  0.000E+00  1.06158E+03  1.036E+00  6.145E+00  1.844E-02  1.518E+00
   1    5   10     4     1    1.0000E+01  9.0919E-02   9.9091E+00  0.000E+00  0.000E+00  0.000E+00  1.07836E+03  6.368E-01  1.000E+01  2.500E-02  1.212E+00
   1    5    9     4     2    9.9091E+00  1.8158E-01   9.7275E+00  0.000E+00  0.000E+00  0.000E+00  1.07154E+03  6.315E-01  1.000E+01  5.000E-02  1.211E+00
   1    6    8     4     3    9.7275E+00  1.2689E-01   9.6006E+00  0.000E+00  0.000E+00  0.000E+00  1.06381E+03  6.256E-01  1.000E+01  3.500E-02  1.209E+00
   1    6    8     5     1    1.0432E+01  2.2686E-01   1.0205E+01  0.000E+00  0.000E+00  0.000E+00  1.05868E+03  6.790E-01  1.542E+01  6.166E-02  1.226E+00
   1    7    7     5     2    1.0205E+01  2.7894E-01   9.9265E+00  0.000E+00  0.000E+00  0.000E+00  1.05417E+03  6.732E-01  1.519E+01  7.594E-02  1.224E+00
   1    8    7     5     3    9.9265E+00  1.9221E-01   9.7343E+00  0.000E+00  0.000E+00  0.000E+00  1.04992E+03  6.676E-01  1.497E+01  5.241E-02  1.223E+00
   1    8    6     5     4    9.7343E+00  1.3577E-01   9.5985E+00  0.000E+00  0.000E+00  0.000E+00  1.04691E+03  6.637E-01  1.482E+01  3.706E-02  1.221E+00
   1    9    6     6     1    9.5985E+00  2.2097E-01   9.3776E+00  0.000E+00  0.000E+00  0.000E+00  1.04341E+03  6.828E-01  1.200E+01  6.000E-02  1.228E+00
   1   10    7     6     2    9.3776E+00  2.2039E-01   9.1572E+00  0.000E+00  0.000E+00  0.000E+00  1.03885E+03  6.732E-01  1.200E+01  6.000E-02  1.224E+00
   1   11    7     6     3    9.1572E+00  2.1981E-01   8.9374E+00  0.000E+00  0.000E+00  0.000E+00  1.03430E+03  6.636E-01  1.200E+01  6.000E-02  1.221E+00
   1   12    7     6     4    8.9374E+00  2.1923E-01   8.7181E+00  0.000E+00  0.000E+00  0.000E+00  1.02974E+03  6.539E-01  1.200E+01  6.000E-02  1.218E+00
   1   13    7     6     5    8.7181E+00 -1.3635E-01   8.8545E+00  0.000E+00  0.000E+00  0.000E+00  1.02656E+03  6.520E-01  1.200E+01  2.400E-01 -1.894E-01
   1   14    9     7     1    1.5000E+02  1.3369E+00   1.4866E+02  0.000E+00  0.000E+00  0.000E+00  1.03987E+03  2.288E+00  5.529E+01  5.593E-01  7.967E-01
   1   13    8     7     2    1.4866E+02  1.8226E+00   1.4684E+02  0.000E+00  0.000E+00  0.000E+00  1.03478E+03  2.279E+00  5.526E+01  6.148E-01  9.882E-01
   1   13    7     7     3    1.4684E+02  1.4301E+00   1.4541E+02  0.000E+00  0.000E+00  0.000E+00  1.02969E+03  2.271E+00  5.522E+01  5.585E-01  8.536E-01
   1   13    6     8     1    1.5426E+02  7.9588E-01   1.5347E+02  0.000E+00  0.000E+00  0.000E+00  1.02472E+03  2.844E+00  4.124E+01  4.202E-01  6.313E-01
   1   13    5     8     2    1.5347E+02  7.4457E-02   1.5339E+02  0.000E+00  0.000E+00  0.000E+00  1.01847E+03  2.841E+00  4.119E+01  4.198E-01  5.913E-02
   1   13    4     8     3    1.5339E+02 -2.9461E+00   1.5634E+02  0.000E+00  0.000E+00  0.000E+00  1.01223E+03  2.851E+00  4.134E+01  4.212E+00 -2.331E-01
   1   13    3     8     4    1.5634E+02 -4.0275E+00   1.6037E+02  0.000E+00  0.000E+00  0.000E+00  1.00600E+03  2.875E+00  4.168E+01  4.248E+00 -3.161E-01
   1   13    2     8     5    1.6037E+02 -2.9333E+00   1.6330E+02  0.000E+00  0.000E+00  0.000E+00  9.99773E+02  2.898E+00  4.202E+01  4.282E+00 -2.283E-01
   1   13    1     8     6    1.6330E+02 -2.2088E+00   1.6551E+02  0.000E+00  0.000E+00  0.000E+00  9.94790E+02  2.915E+00  4.227E+01  2.585E+00 -2.849E-01
   1    8    6     9     1    3.5512E+01  0.0000E+00   3.5512E+01  0.000E+00  0.000E+00  0.000E+00  1.08360E+03  4.847E+00  4.000E+00  0.000E+00  2.616E+00
   1    8    5     9     2    3.5512E+01  0.0000E+00   3.5512E+01  0.000E+00  0.000E+00  0.000E+00  1.08310E+03  4.847E+00  4.000E+00  0.000E+00  2.616E+00



 UBDSV3 SAVING "           GW ET" ON UNIT  61 AT TIME STEP  1, STRESS PERIOD  20
 UBDSV3 SAVING "    UZF RECHARGE" ON UNIT  61 AT TIME STEP  1, STRESS PERIOD  20
 UBDSV3 SAVING " SURFACE LEAKAGE" ON UNIT  61 AT TIME STEP  1, STRESS PERIOD  20
 UBDSV3 SAVING "       HORT+DUNN" ON UNIT  61 AT TIME STEP  1, STRESS PERIOD  20
 UBDSV3 SAVING "  STORAGE CHANGE" ON UNIT  61 AT TIME STEP  1, STRESS PERIOD  20


UNSATURATED ZONE PACKAGE VOLUMETRIC BUDGET FOR  TIME STEP     1 STRESS PERIOD   20
  ------------------------------------------------------------------------------



     CUMULATIVE VOLUMES      L**3       RATES FOR THIS TIME STEP      L**3/T
     ------------------                 ------------------------

           IN:                                      IN:
           ---                                      ---
        INFILTRATION =   618738654.6435          INFILTRATION =          92.6505

          OUT:                                     OUT:
          ----                                     ----
              UZF ET =   537189736.0101                UZF ET =          60.8175
        UZF RECHARGE =       73224.0000          UZF RECHARGE =       0.0000E+00

            IN - OUT =    81475694.6334              IN - OUT =          31.8330

          STORAGE:                                 STORAGE:
          --------                                 --------
      STORAGE CHANGE =    81511457.0643        STORAGE CHANGE =          31.8330

 PERCENT DISCREPANCY IS DIFFERENCE BETWEEN IN-OUT MINUS CHANGE IN STORAGE
 DIVIDED BY THE AVERAGE OF IN AND OUT TIMES 100

 PERCENT DISCREPANCY =          -0.00     PERCENT DISCREPANCY =           0.00






 

        AG WELLS          PERIOD   20   STEP   1
 AG WELL      1   LAYER   1   ROW     6   COL     4   RATE    -9.38168    
 AG WELL      2   LAYER   1   ROW     6   COL     5   RATE    -9.38168    
 AG WELL      3   LAYER   1   ROW     7   COL     4   RATE    -9.38168    
 AG WELL      4   LAYER   1   ROW     7   COL     5   RATE    -9.38168    
 AG WELL      5   LAYER   1   ROW     8   COL     4   RATE    -9.38168    
 AG WELL      6   LAYER   1   ROW     8   COL     5   RATE    -9.38168    
 
 

   DIVERSION SEGMENTS     PERIOD   20   STEP   1
 SEGMENT      9   RATE     35.5122    
 
 

        SW IRRIGATION     PERIOD   20   STEP   1
 SEGMENT      9   ROW     6   COL     4   RATE     5.91882    
 SEGMENT      9   ROW     6   COL     5   RATE     5.91882    
 SEGMENT      9   ROW     7   COL     4   RATE     5.91882    
 SEGMENT      9   ROW     7   COL     5   RATE     5.91882    
 SEGMENT      9   ROW     8   COL     4   RATE     5.91882    
 SEGMENT      9   ROW     8   COL     5   RATE     5.91882    
 
 

        GW IRRIGATION     PERIOD   20   STEP   1
 AG WELL      1   ROW     6   COL     4   RATE     9.38168    
 AG WELL      2   ROW     6   COL     5   RATE     9.38168    
 AG WELL      3   ROW     7   COL     4   RATE     9.38168    
 AG WELL      4   ROW     7   COL     5   RATE     9.38168    
 AG WELL      5   ROW     8   COL     4   RATE     9.38168    
 AG WELL      6   ROW     8   COL     5   RATE     9.38168    
 
1
  VOLUMETRIC BUDGET FOR AGRICULTURAL FIELDS AT  END OF TIME STEP    1, STRESS PERIOD  20
  ------------------------------------------------------------------------------

     CUMULATIVE VOLUMES      L**3       RATES FOR THIS TIME STEP      L**3/T
     ------------------                 ------------------------

           IN:                                      IN:
           ---                                      ---
           AG WELLS      =   129221760.0000             AG WELLS      =          56.2901
      DIVERSION SEGMENTS =   449246720.0000        DIVERSION SEGMENTS =          35.5122
           GW IRRIGATION =           0.0000             GW IRRIGATION =           0.0000
           SW IRRIGATION =           0.0000             SW IRRIGATION =           0.0000
        SYSTEM LOSSES GW =           0.0000          SYSTEM LOSSES GW =           0.0000
        SYSTEM LOSSES SW =           0.0000          SYSTEM LOSSES SW =           0.0000

                TOTAL IN =   578468480.0000                  TOTAL IN =          91.8023

          OUT:                                     OUT:
          ----                                     ----
           AG WELLS      =           0.0000             AG WELLS      =           0.0000
      DIVERSION SEGMENTS =           0.0000        DIVERSION SEGMENTS =           0.0000
           GW IRRIGATION =   129221760.0000             GW IRRIGATION =          56.2901
           SW IRRIGATION =   449255648.0000             SW IRRIGATION =          35.5129
        SYSTEM LOSSES GW =           0.0000          SYSTEM LOSSES GW =           0.0000
        SYSTEM LOSSES SW =           0.0000          SYSTEM LOSSES SW =           0.0000

               TOTAL OUT =   578477440.0000                 TOTAL OUT =          91.8030

                IN - OUT =       -8960.0000                  IN - OUT =      -7.0953E-04

     PERCENT DISCREPANCY =          -0.00         PERCENT DISCREPANCY =          -0.00




 HEAD WILL BE SAVED ON UNIT   62 AT END OF TIME STEP    1, STRESS PERIOD   20
1
  VOLUMETRIC BUDGET FOR ENTIRE MODEL AT END OF TIME STEP    1, STRESS PERIOD  20
  ------------------------------------------------------------------------------

     CUMULATIVE VOLUMES      L**3       RATES FOR THIS TIME STEP      L**3/T
     ------------------                 ------------------------

           IN:                                      IN:
           ---                                      ---
             STORAGE     =   220235616.0000               STORAGE     =          57.3045
       CONSTANT HEAD     =           0.0000         CONSTANT HEAD     =           0.0000
     HEAD DEP BOUNDS     =    13577707.0000       HEAD DEP BOUNDS     =           0.2858
      STREAM LEAKAGE     =   571868288.0000        STREAM LEAKAGE     =          11.7301
        UZF RECHARGE     =       73223.9531          UZF RECHARGE     =           0.0000
               GW ET     =           0.0000                 GW ET     =           0.0000
     SURFACE LEAKAGE     =           0.0000       SURFACE LEAKAGE     =           0.0000
           AG WELLS      =           0.0000             AG WELLS      =           0.0000

                TOTAL IN =   805754816.0000                  TOTAL IN =          69.3205

          OUT:                                     OUT:
          ----                                     ----
             STORAGE     =   147899264.0000               STORAGE     =           0.4877
       CONSTANT HEAD     =           0.0000         CONSTANT HEAD     =           0.0000
     HEAD DEP BOUNDS     =    13838770.0000       HEAD DEP BOUNDS     =           0.2905
      STREAM LEAKAGE     =   512579232.0000        STREAM LEAKAGE     =          12.2522
        UZF RECHARGE     =           0.0000          UZF RECHARGE     =           0.0000
               GW ET     =     2220319.5000                 GW ET     =           0.0000
     SURFACE LEAKAGE     =           0.0000       SURFACE LEAKAGE     =           0.0000
           AG WELLS      =   129221760.0000             AG WELLS      =          56.2901

               TOTAL OUT =   805759296.0000                 TOTAL OUT =          69.3204

                IN - OUT =       -4480.0000                  IN - OUT =       3.8147E-05

     PERCENT DISCREPANCY =          -0.00         PERCENT DISCREPANCY =           0.00






         TIME SUMMARY AT END OF TIME STEP    1 IN STRESS PERIOD   20
                    SECONDS     MINUTES      HOURS       DAYS        YEARS
                    -----------------------------------------------------------
   TIME STEP LENGTH  87667.      1461.1      24.352      1.0147     2.77799E-03
 STRESS PERIOD TIME  87667.      1461.1      24.352      1.0147     2.77799E-03
         TOTAL TIME 4.75142E+07 7.91903E+05  13198.      549.93      1.5056    
1
 
 SOLVING FOR HEAD 
                                                   Max.-Head-Change                         Max.-Flux-Residual
  Residual-Control   Outer-Iter.   Inner-Iter.     Column Row Layer    Maximum-Head-Change  Column Row Layer    Maximum-Flux-Residual          L2-NORM 
          0                 1           2             5    8     1       0.8587209456E-02       5    8    1         0.4641043827E+00      0.1296075662E+01
          0                 2           2             4    7     1      -0.1109218635E+00       5    8    1        -0.5965110858E+01      0.1466957568E+02
          0                 3           2             4    7     1       0.9826576044E-01       5    6    1         0.5422715563E+01      0.1328297125E+02
          0                 4           2             4    7     1      -0.3910146997E-02       4    8    1        -0.2217632382E+00      0.5432692621E+00
          0                 5           1             4    7     1       0.4821370904E-04       4    7    1         0.2809934357E-02      0.6903059580E-02

    ------------------------------------------------
       NWT REQUIRED            5 OUTER ITERATIONS 
       AND A TOTAL OF          9 INNER ITERATIONS.
    ------------------------------------------------

 NO OUTPUT CONTROL FOR STRESS PERIOD   20   TIME STEP    2
 
 SOLVING FOR HEAD 
                                                   Max.-Head-Change                         Max.-Flux-Residual
  Residual-Control   Outer-Iter.   Inner-Iter.     Column Row Layer    Maximum-Head-Change  Column Row Layer    Maximum-Flux-Residual          L2-NORM 
          0                 1           2             5    8     1       0.8746168304E-02       4   13    1         0.4739992204E+00      0.1340908116E+01
          0                 2           2             4    7     1      -0.1109235006E+00       5    8    1        -0.5965573455E+01      0.1467120809E+02
          0                 3           2             4    7     1       0.6101869765E-01       5    6    1         0.3367558043E+01      0.8249388651E+01
          0                 4           2             4    7     1      -0.1617223326E-01       4    8    1        -0.9172107077E+00      0.2246699574E+01
          0                 5           2             4    7     1       0.1994089577E-03       4    7    1         0.1162264502E-01      0.2847972309E-01
          0                 6           1             4    7     1       0.2932753807E-05       5    8    1         0.1712619496E-03      0.4201051646E-03

    ------------------------------------------------
       NWT REQUIRED            6 OUTER ITERATIONS 
       AND A TOTAL OF         11 INNER ITERATIONS.
    ------------------------------------------------

 NO OUTPUT CONTROL FOR STRESS PERIOD   20   TIME STEP    3
 
 SOLVING FOR HEAD 
                                                   Max.-Head-Change                         Max.-Flux-Residual
  Residual-Control   Outer-Iter.   Inner-Iter.     Column Row Layer    Maximum-Head-Change  Column Row Layer    Maximum-Flux-Residual          L2-NORM 
          0                 1           2             5    8     1       0.1039047278E-01       5    8    1         0.5631769821E+00      0.1507485069E+01
          0                 2           2             4    7     1      -0.1109630605E+00       5    8    1        -0.5974735458E+01      0.1468692199E+02
          0                 3           2             4    7     1       0.5706719394E-01       5    8    1         0.3150014414E+01      0.7716107972E+01
          0                 4           2             4    7     1      -0.1755730188E-01       5    8    1        -0.9957779596E+00      0.2439146265E+01
          0                 5           2             4    7     1       0.2164871529E-03       4    7    1         0.1261806956E-01      0.3091806920E-01
          0                 6           1             4    7     1       0.3183926550E-05       5    8    1         0.1859276858E-03      0.4560560640E-03

    ------------------------------------------------
       NWT REQUIRED            6 OUTER ITERATIONS 
       AND A TOTAL OF         11 INNER ITERATIONS.
    ------------------------------------------------

 NO OUTPUT CONTROL FOR STRESS PERIOD   20   TIME STEP    4
 
 SOLVING FOR HEAD 
                                                   Max.-Head-Change                         Max.-Flux-Residual
  Residual-Control   Outer-Iter.   Inner-Iter.     Column Row Layer    Maximum-Head-Change  Column Row Layer    Maximum-Flux-Residual          L2-NORM 
          0                 1           2             5    8     1       0.1210631839E-01       5    8    1         0.6575018347E+00      0.1688800739E+01
          0                 2           2             4    7     1      -0.1110060126E+00       5    8    1        -0.5984179506E+01      0.1470322135E+02
          0                 3           2             4    7     1       0.5676236553E-01       5    8    1         0.3133696246E+01      0.7675620278E+01
          0                 4           2             4    7     1      -0.1761491651E-01       5    8    1        -0.9990659630E+00      0.2447178060E+01
          0                 5           2             4    7     1       0.2171975542E-03       4    7    1         0.1265946509E-01      0.3101970694E-01
          0                 6           1             4    7     1       0.3194374504E-05       5    8    1         0.1865406296E-03      0.4575518390E-03

    ------------------------------------------------
       NWT REQUIRED            6 OUTER ITERATIONS 
       AND A TOTAL OF         11 INNER ITERATIONS.
    ------------------------------------------------

 NO OUTPUT CONTROL FOR STRESS PERIOD   20   TIME STEP    5
 
 SOLVING FOR HEAD 
                                                   Max.-Head-Change                         Max.-Flux-Residual
  Residual-Control   Outer-Iter.   Inner-Iter.     Column Row Layer    Maximum-Head-Change  Column Row Layer    Maximum-Flux-Residual          L2-NORM 
          0                 1           2             5    8     1       0.1374027967E-01       5    8    1         0.7472489065E+00      0.1869031814E+01
          0                 2           2             4    7     1      -0.1110534673E+00       5    8    1        -0.5993274028E+01      0.1471930800E+02
          0                 3           2             4    7     1       0.5670434067E-01       5    8    1         0.3130954201E+01      0.7668428708E+01
          0                 4           2             4    7     1      -0.1757779595E-01       5    8    1        -0.9969791449E+00      0.2442046499E+01
          0                 5           2             4    7     1       0.2159872641E-03       4    7    1         0.1258890614E-01      0.3084720091E-01
          0                 6           1             4    7     1       0.3176575166E-05       5    8    1         0.1855046630E-03      0.4550084378E-03

    ------------------------------------------------
       NWT REQUIRED            6 OUTER ITERATIONS 
       AND A TOTAL OF         11 INNER ITERATIONS.
    ------------------------------------------------

 NO OUTPUT CONTROL FOR STRESS PERIOD   20   TIME STEP    6
 
 SOLVING FOR HEAD 
                                                   Max.-Head-Change                         Max.-Flux-Residual
  Residual-Control   Outer-Iter.   Inner-Iter.     Column Row Layer    Maximum-Head-Change  Column Row Layer    Maximum-Flux-Residual          L2-NORM 
          0                 1           2             5    8     1       0.1528814202E-01       5    8    1         0.8321935510E+00      0.2045323153E+01
          0                 2           2             4    7     1      -0.1111036538E+00       5    8    1        -0.6001918832E+01      0.1473492751E+02
          0                 3           2             4    7     1       0.5666669196E-01       5    8    1         0.3129294326E+01      0.7663935825E+01
          0                 4           2             4    7     1      -0.1753366788E-01       5    8    1        -0.9944930954E+00      0.2435939029E+01
          0                 5           2             4    7     1       0.2154267952E-03       4    7    1         0.1255622605E-01      0.3076735053E-01
          0                 6           1             4    7     1       0.3168331910E-05       5    8    1         0.1850259039E-03      0.4538298160E-03

    ------------------------------------------------
       NWT REQUIRED            6 OUTER ITERATIONS 
       AND A TOTAL OF         11 INNER ITERATIONS.
    ------------------------------------------------

 NO OUTPUT CONTROL FOR STRESS PERIOD   20   TIME STEP    7
 
 SOLVING FOR HEAD 
                                                   Max.-Head-Change                         Max.-Flux-Residual
  Residual-Control   Outer-Iter.   Inner-Iter.     Column Row Layer    Maximum-Head-Change  Column Row Layer    Maximum-Flux-Residual          L2-NORM 
          0                 1           2             5    8     1       0.1675489611E-01       5    8    1         0.9126175880E+00      0.2216560719E+01
          0                 2           2             4    7     1      -0.1111528657E+00       5    8    1        -0.6009960422E+01      0.1474964951E+02
          0                 3           2             4    7     1       0.5662355196E-01       5    8    1         0.3127292552E+01      0.7658646898E+01
          0                 4           2             4    7     1      -0.1748675764E-01       5    8    1        -0.9918476069E+00      0.2429442781E+01
          0                 5           2             4    7     1       0.2148892835E-03       4    7    1         0.1252488415E-01      0.3069075767E-01
          0                 6           1             4    7     1       0.3160426719E-05       5    8    1         0.1845665599E-03      0.4526961221E-03

    ------------------------------------------------
       NWT REQUIRED            6 OUTER ITERATIONS 
       AND A TOTAL OF         11 INNER ITERATIONS.
    ------------------------------------------------

 NO OUTPUT CONTROL FOR STRESS PERIOD   20   TIME STEP    8
 
 SOLVING FOR HEAD 
                                                   Max.-Head-Change                         Max.-Flux-Residual
  Residual-Control   Outer-Iter.   Inner-Iter.     Column Row Layer    Maximum-Head-Change  Column Row Layer    Maximum-Flux-Residual          L2-NORM 
          0                 1           2             5    8     1       0.1814614855E-01       5    8    1         0.9888366144E+00      0.2382265997E+01
          0                 2           2             4    7     1      -0.1112038298E+00       5    8    1        -0.6017583421E+01      0.1476387799E+02
          0                 3           2             4    7     1       0.5658068889E-01       5    8    1         0.3125269852E+01      0.7653346232E+01
          0                 4           2             4    7     1      -0.1743993469E-01       5    8    1        -0.9892055331E+00      0.2422956544E+01
          0                 5           2             4    7     1       0.2143119458E-03       4    7    1         0.1249122057E-01      0.3060846523E-01
          0                 6           1             4    7     1       0.3151935460E-05       5    8    1         0.1840727891E-03      0.4514809776E-03

    ------------------------------------------------
       NWT REQUIRED            6 OUTER ITERATIONS 
       AND A TOTAL OF         11 INNER ITERATIONS.
    ------------------------------------------------

 NO OUTPUT CONTROL FOR STRESS PERIOD   20   TIME STEP    9
 
 SOLVING FOR HEAD 
                                                   Max.-Head-Change                         Max.-Flux-Residual
  Residual-Control   Outer-Iter.   Inner-Iter.     Column Row Layer    Maximum-Head-Change  Column Row Layer    Maximum-Flux-Residual          L2-NORM 
          0                 1           2             5    8     1       0.1946650528E-01       5    8    1         0.1061109714E+01      0.2542216357E+01
          0                 2           2             4    7     1      -0.1112562623E+00       5    8    1        -0.6024811830E+01      0.1477762778E+02
          0                 3           2             4    7     1       0.5653799245E-01       5    8    1         0.3123222915E+01      0.7648022496E+01
          0                 4           2             4    7     1      -0.1739319875E-01       5    8    1        -0.9865669784E+00      0.2416480444E+01
          0                 5           2             4    7     1       0.2137438621E-03       4    7    1         0.1245809627E-01      0.3052747143E-01
          0                 6           1             4    7     1       0.3143580637E-05       5    8    1         0.1835867170E-03      0.4502851057E-03

    ------------------------------------------------
       NWT REQUIRED            6 OUTER ITERATIONS 
       AND A TOTAL OF         11 INNER ITERATIONS.
    ------------------------------------------------

 NO OUTPUT CONTROL FOR STRESS PERIOD   20   TIME STEP   10
 
 SOLVING FOR HEAD 
                                                   Max.-Head-Change                         Max.-Flux-Residual
  Residual-Control   Outer-Iter.   Inner-Iter.     Column Row Layer    Maximum-Head-Change  Column Row Layer    Maximum-Flux-Residual          L2-NORM 
          0                 1           2             5    8     1       0.2072106379E-01       5    8    1         0.1129723099E+01      0.2696429942E+01
          0                 2           2             4    7     1      -0.1113100021E+00       5    8    1        -0.6031672360E+01      0.1479091987E+02
          0                 3           2             4    7     1       0.5649537808E-01       5    8    1         0.3121149572E+01      0.7642667158E+01
          0                 4           2             4    7     1      -0.1734648337E-01       5    8    1        -0.9839282795E+00      0.2410005367E+01
          0                 5           2             4    7     1       0.2131678514E-03       4    7    1         0.1242450975E-01      0.3044532826E-01
          0                 6           1             4    7     1       0.3135109093E-05       5    8    1         0.1830936492E-03      0.4490716478E-03

    ------------------------------------------------
       NWT REQUIRED            6 OUTER ITERATIONS 
       AND A TOTAL OF         11 INNER ITERATIONS.
    ------------------------------------------------

 NO OUTPUT CONTROL FOR STRESS PERIOD   20   TIME STEP   11
 
 SOLVING FOR HEAD 
                                                   Max.-Head-Change                         Max.-Flux-Residual
  Residual-Control   Outer-Iter.   Inner-Iter.     Column Row Layer    Maximum-Head-Change  Column Row Layer    Maximum-Flux-Residual          L2-NORM 
          0                 1           2             5    8     1       0.2191382348E-01       5    8    1         0.1194901532E+01      0.2844969263E+01
          0                 2           2             4    7     1      -0.1113648607E+00       5    8    1        -0.6038189394E+01      0.1480377578E+02
          0                 3           2             4    7     1       0.5645290617E-01       5    8    1         0.3119055595E+01      0.7637290228E+01
          0                 4           2             4    7     1      -0.1729984552E-01       5    8    1        -0.9812927729E+00      0.2403539342E+01
          0                 5           2             4    7     1       0.2126173372E-03       4    7    1         0.1239240938E-01      0.3036680086E-01
          0                 6           1             4    7     1       0.3127012355E-05       5    8    1         0.1826222606E-03      0.4479123022E-03

    ------------------------------------------------
       NWT REQUIRED            6 OUTER ITERATIONS 
       AND A TOTAL OF         11 INNER ITERATIONS.
    ------------------------------------------------

 NO OUTPUT CONTROL FOR STRESS PERIOD   20   TIME STEP   12
 
 SOLVING FOR HEAD 
                                                   Max.-Head-Change                         Max.-Flux-Residual
  Residual-Control   Outer-Iter.   Inner-Iter.     Column Row Layer    Maximum-Head-Change  Column Row Layer    Maximum-Flux-Residual          L2-NORM 
          0                 1           2             5    8     1       0.2304889968E-01       5    8    1         0.1256876028E+01      0.2988013250E+01
          0                 2           2             4    7     1      -0.1114207799E+00       5    8    1        -0.6044388418E+01      0.1481622471E+02
          0                 3           2             4    7     1       0.5641067202E-01       5    8    1         0.3116948264E+01      0.7631909762E+01
          0                 4           2             4    7     1      -0.1725331838E-01       5    8    1        -0.9786624267E+00      0.2397087148E+01
          0                 5           2             4    7     1       0.2120354674E-03       4    7    1         0.1235848118E-01      0.3028378948E-01
          0                 6           1             4    7     1       0.3118454334E-05       5    8    1         0.1821237706E-03      0.4466847705E-03

    ------------------------------------------------
       NWT REQUIRED            6 OUTER ITERATIONS 
       AND A TOTAL OF         11 INNER ITERATIONS.
    ------------------------------------------------

 NO OUTPUT CONTROL FOR STRESS PERIOD   20   TIME STEP   13
 
 SOLVING FOR HEAD 
                                                   Max.-Head-Change                         Max.-Flux-Residual
  Residual-Control   Outer-Iter.   Inner-Iter.     Column Row Layer    Maximum-Head-Change  Column Row Layer    Maximum-Flux-Residual          L2-NORM 
          0                 1           2             5    8     1       0.2412995845E-01       5    8    1         0.1315852106E+01      0.3125740504E+01
          0                 2           2             4    7     1      -0.1114775235E+00       5    8    1        -0.6050286644E+01      0.1482827334E+02
          0                 3           2             4    7     1       0.5636852111E-01       5    8    1         0.3114821166E+01      0.7626506193E+01
          0                 4           2             4    7     1      -0.1720684530E-01       5    8    1        -0.9760341187E+00      0.2390641009E+01
          0                 5           2             4    7     1       0.2114706243E-03       4    7    1         0.1232554542E-01      0.3020319413E-01
          0                 6           1             4    7     1       0.3110147454E-05       5    8    1         0.1816397312E-03      0.4454943854E-03

    ------------------------------------------------
       NWT REQUIRED            6 OUTER ITERATIONS 
       AND A TOTAL OF         11 INNER ITERATIONS.
    ------------------------------------------------

 NO OUTPUT CONTROL FOR STRESS PERIOD   20   TIME STEP   14
 
 SOLVING FOR HEAD 
                                                   Max.-Head-Change                         Max.-Flux-Residual
  Residual-Control   Outer-Iter.   Inner-Iter.     Column Row Layer    Maximum-Head-Change  Column Row Layer    Maximum-Flux-Residual          L2-NORM 
          0                 1           2             5    8     1       0.2516038160E-01       5    8    1         0.1372019787E+01      0.3258360107E+01
          0                 2           2             4    7     1      -0.1115349543E+00       5    8    1        -0.6055903075E+01      0.1483994263E+02
          0                 3           2             4    7     1       0.5632644394E-01       5    8    1         0.3112675641E+01      0.7621080687E+01
          0                 4           2             4    7     1      -0.1716041744E-01       5    8    1        -0.9734074277E+00      0.2384199794E+01
          0                 5           2             4    7     1       0.2109063384E-03       4    7    1         0.1229264214E-01      0.3012266456E-01
          0                 6           1             4    7     1       0.3101848414E-05       5    8    1         0.1811560173E-03      0.4443084159E-03

    ------------------------------------------------
       NWT REQUIRED            6 OUTER ITERATIONS 
       AND A TOTAL OF         11 INNER ITERATIONS.
    ------------------------------------------------

 NO OUTPUT CONTROL FOR STRESS PERIOD   20   TIME STEP   15
 
 SOLVING FOR HEAD 
                                                   Max.-Head-Change                         Max.-Flux-Residual
  Residual-Control   Outer-Iter.   Inner-Iter.     Column Row Layer    Maximum-Head-Change  Column Row Layer    Maximum-Flux-Residual          L2-NORM 
          0                 1           2             5    8     1       0.2614331385E-01       5    8    1         0.1425554415E+01      0.3386107568E+01
          0                 2           2             4    7     1      -0.1115930091E+00       5    8    1        -0.6061257152E+01      0.1485125355E+02
          0                 3           2             4    7     1       0.5628451389E-01       5    8    1         0.3110517349E+01      0.7615645391E+01
          0                 4           2             4    7     1      -0.1711408815E-01       5    8    1        -0.9707854474E+00      0.2377771016E+01
          0                 5           2             4    7     1       0.2103432682E-03       4    7    1         0.1225980968E-01      0.3004229956E-01
          0                 6           1             4    7     1       0.3093567073E-05       5    8    1         0.1806732002E-03      0.4431572162E-03

    ------------------------------------------------
       NWT REQUIRED            6 OUTER ITERATIONS 
       AND A TOTAL OF         11 INNER ITERATIONS.
    ------------------------------------------------

 NO OUTPUT CONTROL FOR STRESS PERIOD   20   TIME STEP   16
 
 SOLVING FOR HEAD 
                                                   Max.-Head-Change                         Max.-Flux-Residual
  Residual-Control   Outer-Iter.   Inner-Iter.     Column Row Layer    Maximum-Head-Change  Column Row Layer    Maximum-Flux-Residual          L2-NORM 
          0                 1           2             5    8     1       0.2708179303E-01       5    8    1         0.1476626935E+01      0.3509184416E+01
          0                 2           2             4    7     1      -0.1116515071E+00       5    8    1        -0.6066364061E+01      0.1486221460E+02
          0                 3           2             4    7     1       0.5624264071E-01       5    8    1         0.3108343072E+01      0.7610190230E+01
          0                 4           2             4    7     1      -0.1706781173E-01       5    8    1        -0.9681656627E+00      0.2371348423E+01
          0                 5           2             4    7     1       0.2097890299E-03       4    7    1         0.1222749206E-01      0.2996318191E-01
          0                 6           1             4    7     1       0.3085415895E-05       5    8    1         0.1801978462E-03      0.4420396920E-03

    ------------------------------------------------
       NWT REQUIRED            6 OUTER ITERATIONS 
       AND A TOTAL OF         11 INNER ITERATIONS.
    ------------------------------------------------

 NO OUTPUT CONTROL FOR STRESS PERIOD   20   TIME STEP   17
 
 SOLVING FOR HEAD 
                                                   Max.-Head-Change                         Max.-Flux-Residual
  Residual-Control   Outer-Iter.   Inner-Iter.     Column Row Layer    Maximum-Head-Change  Column Row Layer    Maximum-Flux-Residual          L2-NORM 
          0                 1           2             5    8     1       0.2797850380E-01       5    8    1         0.1525386933E+01      0.3627816290E+01
          0                 2           2             4    7     1      -0.1117103891E+00       5    8    1        -0.6071240668E+01      0.1487284824E+02
          0                 3           2             4    7     1       0.5620090238E-01       5    8    1         0.3106158527E+01      0.7604727764E+01
          0                 4           2             4    7     1      -0.1702159547E-01       5    8    1        -0.9655485465E+00      0.2364933109E+01
          0                 5           2             4    7     1       0.2092028123E-03       4    7    1         0.1219331037E-01      0.2987948183E-01
          0                 6           1             4    7     1       0.3076794250E-05       5    8    1         0.1796949182E-03      0.4407188891E-03

    ------------------------------------------------
       NWT REQUIRED            6 OUTER ITERATIONS 
       AND A TOTAL OF         11 INNER ITERATIONS.
    ------------------------------------------------

 NO OUTPUT CONTROL FOR STRESS PERIOD   20   TIME STEP   18
 
 SOLVING FOR HEAD 
                                                   Max.-Head-Change                         Max.-Flux-Residual
  Residual-Control   Outer-Iter.   Inner-Iter.     Column Row Layer    Maximum-Head-Change  Column Row Layer    Maximum-Flux-Residual          L2-NORM 
          0                 1           2             5    8     1       0.2883606842E-01       5    8    1         0.1571981488E+01      0.3742205989E+01
          0                 2           2             4    7     1      -0.1117695183E+00       5    8    1        -0.6075899774E+01      0.1488316189E+02
          0                 3           2             4    7     1       0.5615919872E-01       5    8    1         0.3103959612E+01      0.7599246236E+01
          0                 4           2             4    7     1      -0.1697542273E-01       5    8    1        -0.9629332168E+00      0.2358522847E+01
          0                 5           2             4    7     1       0.2086334921E-03       4    7    1         0.1216011366E-01      0.2979819107E-01
          0                 6           1             4    7     1       0.3068420944E-05       5    8    1         0.1792063781E-03      0.4406299038E-03

    ------------------------------------------------
       NWT REQUIRED            6 OUTER ITERATIONS 
       AND A TOTAL OF         11 INNER ITERATIONS.
    ------------------------------------------------

 NO OUTPUT CONTROL FOR STRESS PERIOD   20   TIME STEP   19
 
 SOLVING FOR HEAD 
                                                   Max.-Head-Change                         Max.-Flux-Residual
  Residual-Control   Outer-Iter.   Inner-Iter.     Column Row Layer    Maximum-Head-Change  Column Row Layer    Maximum-Flux-Residual          L2-NORM 
          0                 1           2             5    8     1       0.2965663780E-01       5    8    1         0.1616530748E+01      0.3852558348E+01
          0                 2           2             4    7     1      -0.1118288285E+00       5    8    1        -0.6080354824E+01      0.1489317335E+02
          0                 3           2             4    7     1       0.5611759859E-01       5    8    1         0.3101751326E+01      0.7593756721E+01
          0                 4           2             4    7     1      -0.1692935928E-01       5    8    1        -0.9603234549E+00      0.2352126846E+01
          0                 5           2             4    7     1       0.2080900599E-03       4    7    1         0.1212842603E-01      0.2972058514E-01
          0                 6           1             4    7     1       0.3060428828E-05       5    8    1         0.1787399469E-03      0.4383708891E-03

    ------------------------------------------------
       NWT REQUIRED            6 OUTER ITERATIONS 
       AND A TOTAL OF         11 INNER ITERATIONS.
    ------------------------------------------------

 NO OUTPUT CONTROL FOR STRESS PERIOD   20   TIME STEP   20
 
 SOLVING FOR HEAD 
                                                   Max.-Head-Change                         Max.-Flux-Residual
  Residual-Control   Outer-Iter.   Inner-Iter.     Column Row Layer    Maximum-Head-Change  Column Row Layer    Maximum-Flux-Residual          L2-NORM 
          0                 1           2             5    8     1       0.3044249425E-01       5    8    1         0.1659162028E+01      0.3959070404E+01
          0                 2           2             4    7     1      -0.1118882249E+00       5    8    1        -0.6084618073E+01      0.1490289385E+02
          0                 3           2             4    7     1       0.5607607384E-01       5    8    1         0.3099533343E+01      0.7588257047E+01
          0                 4           2             4    7     1      -0.1688333250E-01       5    8    1        -0.9577151948E+00      0.2345735094E+01
          0                 5           2             4    7     1       0.2075061783E-03       4    7    1         0.1209438067E-01      0.2963719858E-01
          0                 6           1             4    7     1       0.3051841572E-05       5    8    1         0.1782387260E-03      0.4371399850E-03

    ------------------------------------------------
       NWT REQUIRED            6 OUTER ITERATIONS 
       AND A TOTAL OF         11 INNER ITERATIONS.
    ------------------------------------------------

 NO OUTPUT CONTROL FOR STRESS PERIOD   20   TIME STEP   21
 
 SOLVING FOR HEAD 
                                                   Max.-Head-Change                         Max.-Flux-Residual
  Residual-Control   Outer-Iter.   Inner-Iter.     Column Row Layer    Maximum-Head-Change  Column Row Layer    Maximum-Flux-Residual          L2-NORM 
          0                 1           2             5    8     1       0.3119575488E-01       5    8    1         0.1699993666E+01      0.4061929238E+01
          0                 2           2             4    7     1      -0.1119476289E+00       5    8    1        -0.6088701354E+01      0.1491233642E+02
          0                 3           2             4    7     1       0.5603459743E-01       5    8    1         0.3097305303E+01      0.7582744981E+01
          0                 4           2             4    7     1      -0.1683737913E-01       5    8    1        -0.9551105684E+00      0.2339352752E+01
          0                 5           2             4    7     1       0.2069559235E-03       4    7    1         0.1206229443E-01      0.2955860337E-01
          0                 6           1             4    7     1       0.3043748642E-05       5    8    1         0.1777662812E-03      0.4359811817E-03

    ------------------------------------------------
       NWT REQUIRED            6 OUTER ITERATIONS 
       AND A TOTAL OF         11 INNER ITERATIONS.
    ------------------------------------------------

 NO OUTPUT CONTROL FOR STRESS PERIOD   20   TIME STEP   22
 
 SOLVING FOR HEAD 
                                                   Max.-Head-Change                         Max.-Flux-Residual
  Residual-Control   Outer-Iter.   Inner-Iter.     Column Row Layer    Maximum-Head-Change  Column Row Layer    Maximum-Flux-Residual          L2-NORM 
          0                 1           2             5    8     1       0.3191824529E-01       5    8    1         0.1739127502E+01      0.4161312773E+01
          0                 2           2             4    7     1      -0.1120069819E+00       5    8    1        -0.6092614851E+01      0.1492151284E+02
          0                 3           2             4    7     1       0.5599318441E-01       5    8    1         0.3095126394E+01      0.7577250154E+01
          0                 4           2             4    7     1      -0.1679149311E-01       5    6    1        -0.9525055547E+00      0.2331691168E+01
          0                 5           2             4    7     1       0.2064064975E-03       4    7    1         0.1203027445E-01      0.2946556967E-01
          0                 6           1             4    7     1       0.3035668033E-05       5    6    1         0.1772849864E-03      0.4346333398E-03

    ------------------------------------------------
       NWT REQUIRED            6 OUTER ITERATIONS 
       AND A TOTAL OF         11 INNER ITERATIONS.
    ------------------------------------------------

 NO OUTPUT CONTROL FOR STRESS PERIOD   20   TIME STEP   23
 
 SOLVING FOR HEAD 
                                                   Max.-Head-Change                         Max.-Flux-Residual
  Residual-Control   Outer-Iter.   Inner-Iter.     Column Row Layer    Maximum-Head-Change  Column Row Layer    Maximum-Flux-Residual          L2-NORM 
          0                 1           2             5    8     1       0.3261180464E-01       5    8    1         0.1776666087E+01      0.4257374105E+01
          0                 2           2             4    7     1      -0.1120661983E+00       5    8    1        -0.6096369296E+01      0.1493043146E+02
          0                 3           2             4    7     1       0.5595186345E-01       5    8    1         0.3094588102E+01      0.7572423124E+01
          0                 4           2             4    7     1      -0.1674569240E-01       5    6    1        -0.9499080862E+00      0.2326042967E+01
          0                 5           2             4    7     1       0.2058336146E-03       4    7    1         0.1199685895E-01      0.2939178350E-01
          0                 6           1             4    7     1       0.3027243088E-05       5    6    1         0.1767928620E-03      0.4335359660E-03

    ------------------------------------------------
       NWT REQUIRED            6 OUTER ITERATIONS 
       AND A TOTAL OF         11 INNER ITERATIONS.
    ------------------------------------------------

 NO OUTPUT CONTROL FOR STRESS PERIOD   20   TIME STEP   24
 
 SOLVING FOR HEAD 
                                                   Max.-Head-Change                         Max.-Flux-Residual
  Residual-Control   Outer-Iter.   Inner-Iter.     Column Row Layer    Maximum-Head-Change  Column Row Layer    Maximum-Flux-Residual          L2-NORM 
          0                 1           2             5    8     1       0.3327800883E-01       5    8    1         0.1812696915E+01      0.4350284995E+01
          0                 2           2             4    7     1      -0.1121252183E+00       5    8    1        -0.6099972009E+01      0.1493910283E+02
          0                 3           2             4    7     1       0.5591055162E-01       5    8    1         0.3093996303E+01      0.7567566718E+01
          0                 4           2             4    7     1      -0.1669992983E-01       5    8    1        -0.9474506255E+00      0.2320311768E+01
          0                 5           2             4    7     1       0.2052858050E-03       4    7    1         0.1196490749E-01      0.2932109305E-01
          0                 6           1             4    7     1       0.3019186115E-05       5    8    1         0.1763839418E-03      0.4324971187E-03

    ------------------------------------------------
       NWT REQUIRED            6 OUTER ITERATIONS 
       AND A TOTAL OF         11 INNER ITERATIONS.
    ------------------------------------------------

 NO OUTPUT CONTROL FOR STRESS PERIOD   20   TIME STEP   25
 
 SOLVING FOR HEAD 
                                                   Max.-Head-Change                         Max.-Flux-Residual
  Residual-Control   Outer-Iter.   Inner-Iter.     Column Row Layer    Maximum-Head-Change  Column Row Layer    Maximum-Flux-Residual          L2-NORM 
          0                 1           2             5    8     1       0.3389301440E-01       5    8    1         0.1848364030E+01      0.4440800386E+01
          0                 2           2             4    7     1      -0.1121839759E+00       5    6    1        -0.6102733440E+01      0.1494692479E+02
          0                 3           2             4    7     1       0.5586930881E-01       5    8    1         0.3093249776E+01      0.7562646772E+01
          0                 4           2             4    7     1      -0.1665424160E-01       5    8    1        -0.9449217791E+00      0.2313989370E+01
          0                 5           2             4    7     1       0.2047306385E-03       4    7    1         0.1193253564E-01      0.2924204852E-01
          0                 6           1             4    7     1       0.3011020823E-05       5    8    1         0.1759174743E-03      0.4313293167E-03

    ------------------------------------------------
       NWT REQUIRED            6 OUTER ITERATIONS 
       AND A TOTAL OF         11 INNER ITERATIONS.
    ------------------------------------------------

 NO OUTPUT CONTROL FOR STRESS PERIOD   20   TIME STEP   26
 
 SOLVING FOR HEAD 
                                                   Max.-Head-Change                         Max.-Flux-Residual
  Residual-Control   Outer-Iter.   Inner-Iter.     Column Row Layer    Maximum-Head-Change  Column Row Layer    Maximum-Flux-Residual          L2-NORM 
          0                 1           2             5    8     1       0.3453349997E-01       5    8    1         0.1883051838E+01      0.4528674384E+01
          0                 2           2             4    7     1      -0.1122424753E+00       5    8    1        -0.6106963109E+01      0.1495583787E+02
          0                 3           2             4    7     1       0.5582812324E-01       5    8    1         0.3092679910E+01      0.7557792789E+01
          0                 4           2             4    7     1      -0.1660861443E-01       5    8    1        -0.9424036141E+00      0.2307677841E+01
          0                 5           2             4    7     1       0.2041680440E-03       4    7    1         0.1189973098E-01      0.2916196872E-01
          0                 6           1             4    7     1       0.3002746763E-05       5    8    1         0.1754457510E-03      0.4301477330E-03

    ------------------------------------------------
       NWT REQUIRED            6 OUTER ITERATIONS 
       AND A TOTAL OF         11 INNER ITERATIONS.
    ------------------------------------------------

 NO OUTPUT CONTROL FOR STRESS PERIOD   20   TIME STEP   27
 
 SOLVING FOR HEAD 
                                                   Max.-Head-Change                         Max.-Flux-Residual
  Residual-Control   Outer-Iter.   Inner-Iter.     Column Row Layer    Maximum-Head-Change  Column Row Layer    Maximum-Flux-Residual          L2-NORM 
          0                 1           2             5    8     1       0.3514860800E-01       5    8    1         0.1916338066E+01      0.4613751222E+01
          0                 2           2             4    7     1      -0.1123005607E+00       5    8    1        -0.6110332003E+01      0.1496390446E+02
          0                 3           2             4    7     1       0.5578688875E-01       5    8    1         0.3083833452E+01      0.7549539306E+01
          0                 4           2             4    7     1      -0.1656302306E-01       5    6    1        -0.9395474484E+00      0.2301231728E+01
          0                 5           2             4    7     1       0.2035895300E-03       4    7    1         0.1186600031E-01      0.2907812819E-01
          0                 6           1             4    7     1       0.2994238366E-05       5    8    1         0.1749030853E-03      0.4289216138E-03

    ------------------------------------------------
       NWT REQUIRED            6 OUTER ITERATIONS 
       AND A TOTAL OF         11 INNER ITERATIONS.
    ------------------------------------------------

 NO OUTPUT CONTROL FOR STRESS PERIOD   20   TIME STEP   28
 
 SOLVING FOR HEAD 
                                                   Max.-Head-Change                         Max.-Flux-Residual
  Residual-Control   Outer-Iter.   Inner-Iter.     Column Row Layer    Maximum-Head-Change  Column Row Layer    Maximum-Flux-Residual          L2-NORM 
          0                 1           2             5    8     1       0.3573972186E-01       5    8    1         0.1948300579E+01      0.4696147633E+01
          0                 2           2             4    7     1      -0.1123582879E+00       5    8    1        -0.6113526781E+01      0.1497173646E+02
          0                 3           2             4    7     1       0.5574570744E-01       5    8    1         0.3081565526E+01      0.7543974304E+01
          0                 4           2             4    7     1      -0.1651750517E-01       5    6    1        -0.9369650288E+00      0.2294906152E+01
          0                 5           2             4    7     1       0.2030446436E-03       4    7    1         0.1183422848E-01      0.2900026323E-01
          0                 6           1             4    7     1       0.2986224967E-05       5    8    1         0.1744348133E-03      0.4277656820E-03

    ------------------------------------------------
       NWT REQUIRED            6 OUTER ITERATIONS 
       AND A TOTAL OF         11 INNER ITERATIONS.
    ------------------------------------------------

 NO OUTPUT CONTROL FOR STRESS PERIOD   20   TIME STEP   29
 
 SOLVING FOR HEAD 
                                                   Max.-Head-Change                         Max.-Flux-Residual
  Residual-Control   Outer-Iter.   Inner-Iter.     Column Row Layer    Maximum-Head-Change  Column Row Layer    Maximum-Flux-Residual          L2-NORM 
          0                 1           2             5    8     1       0.3630483660E-01       5    8    1         0.1979018930E+01      0.4705243917E+01
          0                 2           2             4    7     1      -0.1124156328E+00       5    8    1        -0.6116598544E+01      0.1494762924E+02
          0                 3           2             4    7     1       0.3152276880E-01       5    8    1         0.1745051120E+01      0.4270868223E+01
          0                 4           2             4    7     1      -0.1551034470E-01       5    8    1        -0.8798607320E+00      0.2155013502E+01
          0                 5           2             4    7     1       0.1906261126E-03       4    7    1         0.1111046314E-01      0.2722580826E-01
          0                 6           1             4    7     1       0.2803582588E-05       5    8    1         0.1637599073E-03      0.4015525105E-03

    ------------------------------------------------
       NWT REQUIRED            6 OUTER ITERATIONS 
       AND A TOTAL OF         11 INNER ITERATIONS.
    ------------------------------------------------

 NO OUTPUT CONTROL FOR STRESS PERIOD   20   TIME STEP   30



 STREAM LISTING     PERIOD     20   STEP       30

 LAYER ROW COL. STREAM  RCH.  FLOW INTO     FLOW TO   FLOW OUT OF   OVRLND.     DIRECT     STREAM       STREAM     STREAM     STREAM   STREAMBED  STREAMBED
                SEG.NO.  NO.  STRM. RCH.    AQUIFER    STRM. RCH.    RUNOFF     PRECIP       ET          HEAD       DEPTH      WIDTH   CONDCTNC.   GRADIENT

   1    1    1     1     1    3.2276E+01  2.7609E-01   3.2000E+01  0.000E+00  0.000E+00  0.000E+00  1.09432E+03  1.269E+00  1.437E+01  6.467E-02  1.423E+00
   1    2    2     1     2    3.2000E+01  4.2738E-01   3.1573E+01  0.000E+00  0.000E+00  0.000E+00  1.08932E+03  1.266E+00  1.431E+01  1.002E-01  1.422E+00
   1    3    3     1     3    3.1573E+01  3.6428E-01   3.1209E+01  0.000E+00  0.000E+00  0.000E+00  1.08368E+03  1.263E+00  1.424E+01  8.546E-02  1.421E+00
   1    3    4     1     4    3.1209E+01  3.3528E-01   3.0873E+01  0.000E+00  0.000E+00  0.000E+00  1.07867E+03  1.259E+00  1.418E+01  7.871E-02  1.420E+00
   1    4    5     2     1    2.8873E+01  3.3633E-01   2.8537E+01  0.000E+00  0.000E+00  0.000E+00  1.07325E+03  1.312E+00  1.200E+01  7.800E-02  1.437E+00
   1    5    6     2     2    2.8537E+01  2.5823E-01   2.8279E+01  0.000E+00  0.000E+00  0.000E+00  1.06781E+03  1.304E+00  1.200E+01  6.000E-02  1.435E+00
   1    6    6     2     3    2.8279E+01  2.5780E-01   2.8021E+01  0.000E+00  0.000E+00  0.000E+00  1.06309E+03  1.297E+00  1.200E+01  6.000E-02  1.432E+00
   1    7    6     2     4    2.8021E+01  2.5737E-01   2.7764E+01  0.000E+00  0.000E+00  0.000E+00  1.05836E+03  1.290E+00  1.200E+01  6.000E-02  1.430E+00
   1    8    6     2     5    2.7764E+01  2.5694E-01   2.7507E+01  0.000E+00  0.000E+00  0.000E+00  1.05364E+03  1.282E+00  1.200E+01  6.000E-02  1.427E+00
   1    3    5     3     1    2.0000E+00  2.8252E-01   1.7175E+00  0.000E+00  0.000E+00  0.000E+00  1.07555E+03  1.909E+00  9.636E+00  7.227E-02  1.955E+00
   1    3    6     3     2    1.7175E+00  2.4905E-01   1.4684E+00  0.000E+00  0.000E+00  0.000E+00  1.07264E+03  1.727E+00  8.909E+00  6.682E-02  1.864E+00
   1    3    7     3     3    1.4684E+00  1.9718E-01   1.2712E+00  0.000E+00  0.000E+00  0.000E+00  1.06987E+03  1.555E+00  8.218E+00  5.547E-02  1.777E+00
   1    4    8     3     4    1.2712E+00  2.2567E-01   1.0456E+00  0.000E+00  0.000E+00  0.000E+00  1.06682E+03  1.364E+00  7.455E+00  6.709E-02  1.682E+00
   1    5    8     3     5    1.0456E+00  1.5790E-01   8.8768E-01  0.000E+00  0.000E+00  0.000E+00  1.06362E+03  1.164E+00  6.655E+00  4.991E-02  1.582E+00
   1    6    8     3     6    8.8768E-01  5.5980E-02   8.3170E-01  0.000E+00  0.000E+00  0.000E+00  1.06158E+03  1.036E+00  6.145E+00  1.844E-02  1.518E+00
   1    5   10     4     1    1.0000E+01  9.0919E-02   9.9091E+00  0.000E+00  0.000E+00  0.000E+00  1.07836E+03  6.368E-01  1.000E+01  2.500E-02  1.212E+00
   1    5    9     4     2    9.9091E+00  1.8158E-01   9.7275E+00  0.000E+00  0.000E+00  0.000E+00  1.07154E+03  6.315E-01  1.000E+01  5.000E-02  1.211E+00
   1    6    8     4     3    9.7275E+00  1.2689E-01   9.6006E+00  0.000E+00  0.000E+00  0.000E+00  1.06381E+03  6.256E-01  1.000E+01  3.500E-02  1.209E+00
   1    6    8     5     1    1.0432E+01  2.2686E-01   1.0205E+01  0.000E+00  0.000E+00  0.000E+00  1.05868E+03  6.790E-01  1.542E+01  6.166E-02  1.226E+00
   1    7    7     5     2    1.0205E+01  2.7894E-01   9.9265E+00  0.000E+00  0.000E+00  0.000E+00  1.05417E+03  6.732E-01  1.519E+01  7.594E-02  1.224E+00
   1    8    7     5     3    9.9265E+00  1.9221E-01   9.7343E+00  0.000E+00  0.000E+00  0.000E+00  1.04992E+03  6.676E-01  1.497E+01  5.241E-02  1.223E+00
   1    8    6     5     4    9.7343E+00  1.3577E-01   9.5985E+00  0.000E+00  0.000E+00  0.000E+00  1.04691E+03  6.637E-01  1.482E+01  3.706E-02  1.221E+00
   1    9    6     6     1    9.5985E+00  2.2097E-01   9.3776E+00  0.000E+00  0.000E+00  0.000E+00  1.04341E+03  6.828E-01  1.200E+01  6.000E-02  1.228E+00
   1   10    7     6     2    9.3776E+00  2.2039E-01   9.1572E+00  0.000E+00  0.000E+00  0.000E+00  1.03885E+03  6.732E-01  1.200E+01  6.000E-02  1.224E+00
   1   11    7     6     3    9.1572E+00  2.1981E-01   8.9374E+00  0.000E+00  0.000E+00  0.000E+00  1.03430E+03  6.636E-01  1.200E+01  6.000E-02  1.221E+00
   1   12    7     6     4    8.9374E+00  2.1923E-01   8.7181E+00  0.000E+00  0.000E+00  0.000E+00  1.02974E+03  6.539E-01  1.200E+01  6.000E-02  1.218E+00
   1   13    7     6     5    8.7181E+00 -1.2458E-01   8.8427E+00  0.000E+00  0.000E+00  0.000E+00  1.02656E+03  6.517E-01  1.200E+01  2.400E-01 -1.730E-01
   1   14    9     7     1    1.5000E+02  1.3369E+00   1.4866E+02  0.000E+00  0.000E+00  0.000E+00  1.03987E+03  2.288E+00  5.529E+01  5.593E-01  7.968E-01
   1   13    8     7     2    1.4866E+02  1.8263E+00   1.4684E+02  0.000E+00  0.000E+00  0.000E+00  1.03478E+03  2.279E+00  5.526E+01  6.148E-01  9.902E-01
   1   13    7     7     3    1.4684E+02  1.4575E+00   1.4538E+02  0.000E+00  0.000E+00  0.000E+00  1.02969E+03  2.271E+00  5.522E+01  5.585E-01  8.700E-01
   1   13    6     8     1    1.5422E+02  8.1541E-01   1.5341E+02  0.000E+00  0.000E+00  0.000E+00  1.02472E+03  2.843E+00  4.123E+01  4.202E-01  6.469E-01
   1   13    5     8     2    1.5341E+02  9.3155E-02   1.5331E+02  0.000E+00  0.000E+00  0.000E+00  1.01847E+03  2.840E+00  4.118E+01  4.197E-01  7.399E-02
   1   13    4     8     3    1.5331E+02 -2.6918E+00   1.5601E+02  0.000E+00  0.000E+00  0.000E+00  1.01222E+03  2.849E+00  4.132E+01  4.210E+00 -2.131E-01
   1   13    3     8     4    1.5601E+02 -3.7821E+00   1.5979E+02  0.000E+00  0.000E+00  0.000E+00  1.00600E+03  2.872E+00  4.164E+01  4.243E+00 -2.971E-01
   1   13    2     8     5    1.5979E+02 -2.6504E+00   1.6244E+02  0.000E+00  0.000E+00  0.000E+00  9.99768E+02  2.893E+00  4.195E+01  4.275E+00 -2.067E-01
   1   13    1     8     6    1.6244E+02 -2.0452E+00   1.6448E+02  0.000E+00  0.000E+00  0.000E+00  9.94784E+02  2.909E+00  4.218E+01  2.579E+00 -2.643E-01
   1    8    6     9     1    2.7507E+01  0.0000E+00   2.7507E+01  0.000E+00  0.000E+00  0.000E+00  1.08291E+03  4.158E+00  4.000E+00  0.000E+00  2.386E+00
   1    8    5     9     2    2.7507E+01  0.0000E+00   2.7507E+01  0.000E+00  0.000E+00  0.000E+00  1.08241E+03  4.158E+00  4.000E+00  0.000E+00  2.386E+00





UNSATURATED ZONE PACKAGE VOLUMETRIC BUDGET FOR  TIME STEP    30 STRESS PERIOD   20
  ------------------------------------------------------------------------------



     CUMULATIVE VOLUMES      L**3       RATES FOR THIS TIME STEP      L**3/T
     ------------------                 ------------------------

           IN:                                      IN:
           ---                                      ---
        INFILTRATION =   771506044.8990          INFILTRATION =          60.8167

          OUT:                                     OUT:
          ----                                     ----
              UZF ET =   691808400.7656                UZF ET =          60.8175
        UZF RECHARGE =       73224.0000          UZF RECHARGE =       0.0000E+00

            IN - OUT =    79624420.1334              IN - OUT =      -7.6675E-04

          STORAGE:                                 STORAGE:
          --------                                 --------
      STORAGE CHANGE =    79660184.3640        STORAGE CHANGE =      -7.6566E-04

 PERCENT DISCREPANCY IS DIFFERENCE BETWEEN IN-OUT MINUS CHANGE IN STORAGE
 DIVIDED BY THE AVERAGE OF IN AND OUT TIMES 100

 PERCENT DISCREPANCY =          -0.00     PERCENT DISCREPANCY =           0.00






1
  VOLUMETRIC BUDGET FOR AGRICULTURAL FIELDS AT  END OF TIME STEP   30, STRESS PERIOD  20
  ------------------------------------------------------------------------------

     CUMULATIVE VOLUMES      L**3       RATES FOR THIS TIME STEP      L**3/T
     ------------------                 ------------------------

           IN:                                      IN:
           ---                                      ---
           AG WELLS      =   190250704.0000             AG WELLS      =          32.4620
      DIVERSION SEGMENTS =   538829056.0000        DIVERSION SEGMENTS =          27.5067
           GW IRRIGATION =           0.0000             GW IRRIGATION =           0.0000
           SW IRRIGATION =           0.0000             SW IRRIGATION =           0.0000
        SYSTEM LOSSES GW =           0.0000          SYSTEM LOSSES GW =           0.0000
        SYSTEM LOSSES SW =           0.0000          SYSTEM LOSSES SW =           0.0000

                TOTAL IN =   729079744.0000                  TOTAL IN =          59.9687

          OUT:                                     OUT:
          ----                                     ----
           AG WELLS      =           0.0000             AG WELLS      =           0.0000
      DIVERSION SEGMENTS =           0.0000        DIVERSION SEGMENTS =           0.0000
           GW IRRIGATION =   190250704.0000             GW IRRIGATION =          32.4620
           SW IRRIGATION =   538839872.0000             SW IRRIGATION =          27.5073
        SYSTEM LOSSES GW =           0.0000          SYSTEM LOSSES GW =           0.0000
        SYSTEM LOSSES SW =           0.0000          SYSTEM LOSSES SW =           0.0000

               TOTAL OUT =   729090560.0000                 TOTAL OUT =          59.9692

                IN - OUT =      -10816.0000                  IN - OUT =      -5.4932E-04

     PERCENT DISCREPANCY =          -0.00         PERCENT DISCREPANCY =          -0.00



1
  VOLUMETRIC BUDGET FOR ENTIRE MODEL AT END OF TIME STEP   30, STRESS PERIOD  20
  ------------------------------------------------------------------------------

     CUMULATIVE VOLUMES      L**3       RATES FOR THIS TIME STEP      L**3/T
     ------------------                 ------------------------

           IN:                                      IN:
           ---                                      ---
             STORAGE     =   282077248.0000               STORAGE     =          32.5498
       CONSTANT HEAD     =           0.0000         CONSTANT HEAD     =           0.0000
     HEAD DEP BOUNDS     =    14304389.0000       HEAD DEP BOUNDS     =           0.2858
      STREAM LEAKAGE     =   601769600.0000        STREAM LEAKAGE     =          11.5809
        UZF RECHARGE     =       73223.9531          UZF RECHARGE     =           0.0000
               GW ET     =           0.0000                 GW ET     =           0.0000
     SURFACE LEAKAGE     =           0.0000       SURFACE LEAKAGE     =           0.0000
           AG WELLS      =           0.0000             AG WELLS      =           0.0000

                TOTAL IN =   898224448.0000                  TOTAL IN =          44.4166

          OUT:                                     OUT:
          ----                                     ----
             STORAGE     =   149092144.0000               STORAGE     =           0.3726
       CONSTANT HEAD     =           0.0000         CONSTANT HEAD     =           0.0000
     HEAD DEP BOUNDS     =    14573281.0000       HEAD DEP BOUNDS     =           0.2879
      STREAM LEAKAGE     =   542092608.0000        STREAM LEAKAGE     =          11.2941
        UZF RECHARGE     =           0.0000          UZF RECHARGE     =           0.0000
               GW ET     =     2220319.5000                 GW ET     =           0.0000
     SURFACE LEAKAGE     =           0.0000       SURFACE LEAKAGE     =           0.0000
           AG WELLS      =   190250704.0000             AG WELLS      =          32.4620

               TOTAL OUT =   898228992.0000                 TOTAL OUT =          44.4166

                IN - OUT =       -4544.0000                  IN - OUT =       1.1444E-05

     PERCENT DISCREPANCY =          -0.00         PERCENT DISCREPANCY =           0.00






         TIME SUMMARY AT END OF TIME STEP   30 IN STRESS PERIOD   20
                    SECONDS     MINUTES      HOURS       DAYS        YEARS
                    -----------------------------------------------------------
   TIME STEP LENGTH  87667.      1461.1      24.352      1.0147     2.77799E-03
 STRESS PERIOD TIME 2.63000E+06  43833.      730.56      30.440     8.33397E-02
         TOTAL TIME 5.00565E+07 8.34276E+05  13905.      579.36      1.5862    
1
1
                            STRESS PERIOD NO.   21, LENGTH =   2630000.    
                            -----------------------------------------------

                              NUMBER OF TIME STEPS =    30

                               MULTIPLIER FOR DELT =     1.000

                            INITIAL TIME STEP SIZE =   87666.66    

 REUSING NON-PARAMETER GHB CELLS FROM LAST STRESS PERIOD

      2 GHB CELLS

 REUSING STREAM SEGMENT DATA FROM LAST STRESS PERIOD



            AREAL INFILTRATION RATE
 READING ON UNIT   19 WITH FORMAT: (FREE)              

            1           2           3           4           5           6           7           8           9          10
 ........................................................................................................................
   1   1.0000E-10  2.0000E-10   0.000       0.000       0.000       0.000       0.000       0.000       0.000       0.000    
   2   2.0000E-10  1.0000E-10  2.0000E-10   0.000       0.000      8.0000E-10  8.0000E-10  5.0000E-10   0.000       0.000    
   3    0.000      5.0000E-10  1.0000E-10  1.0000E-10  8.0000E-10  8.0000E-10  5.0000E-10  5.0000E-10   0.000       0.000    
   4   8.0000E-10  5.0000E-10  1.0000E-10  1.0000E-10  1.0000E-10  1.0000E-10  1.0000E-10  1.0000E-10  2.0000E-10   0.000    
   5   8.0000E-10  5.0000E-10  1.0000E-10  1.0000E-10  1.0000E-10  1.0000E-10  1.0000E-10  1.0000E-10  1.0000E-10  1.0000E-10
   6   8.0000E-10  5.0000E-10  5.0000E-10  2.0000E-10  2.0000E-10  1.0000E-10  1.0000E-10  1.0000E-10  1.0000E-10  5.0000E-10
   7   8.0000E-10  5.0000E-10  5.0000E-10  2.0000E-10  2.0000E-10  1.0000E-10  1.0000E-10  2.0000E-10  2.0000E-10   0.000    
   8    0.000      5.0000E-10  5.0000E-10  2.0000E-10  2.0000E-10  1.0000E-10  1.0000E-10  2.0000E-10  5.0000E-10   0.000    
   9    0.000      5.0000E-10  5.0000E-10  2.0000E-10  2.0000E-10  1.0000E-10  1.0000E-10  2.0000E-10  5.0000E-10   0.000    
  10    0.000      5.0000E-10  5.0000E-10  2.0000E-10  2.0000E-10  1.0000E-10  1.0000E-10  2.0000E-10  5.0000E-10  8.0000E-10
  11    0.000      1.0000E-10  1.0000E-10  1.0000E-10  1.0000E-10  1.0000E-10  1.0000E-10  2.0000E-10  5.0000E-10   0.000    
  12   1.0000E-10  1.0000E-10  1.0000E-10  1.0000E-10  1.0000E-10  1.0000E-10  1.0000E-10  1.0000E-10  2.0000E-10   0.000    
  13   1.0000E-10  1.0000E-10  2.0000E-10  2.0000E-10  2.0000E-10  2.0000E-10  2.0000E-10  1.0000E-10  1.0000E-10   0.000    
  14    0.000      2.0000E-10  5.0000E-10  5.0000E-10  5.0000E-10  5.0000E-10  5.0000E-10  2.0000E-10  1.0000E-10   0.000    
  15    0.000       0.000      8.0000E-10  8.0000E-10  8.0000E-10  8.0000E-10   0.000       0.000       0.000       0.000    

                  ET RATE =  3.250000E-07

 USING ET EXTINCTION DEPTH FROM PREVIOUS STRESS PERIOD. CURRENT PERIOD IS:      21

 USING EXTINCTION WATER CONTENT FROM PREVIOUS STRESS PERIOD. CURRENT PERIOD IS:      21

 USING AIR ENTRY PRESSURE FROM PREVIOUS STRESS PERIOD. CURRENT PERIOD IS:      21

 USING ROOT PRESSURE HEAD FROM PREVIOUS STRESS PERIOD. CURRENT PERIOD IS:      21

 USING ROOT ACTIVITY FROM PREVIOUS STRESS PERIOD. CURRENT PERIOD IS:      21

 PROCESSING AG STRESS PERIOD DATA

 READING AG STRESS PERIOD DATA

 READING IRRIGATION SEGMENT

 READING IRRIGATION WELL

 READING SUPPLEMENTAL WELL

 END PROCESSING AG STRESS PERIOD DATA OPTIONS
 
 SOLVING FOR HEAD 
                                                   Max.-Head-Change                         Max.-Flux-Residual
  Residual-Control   Outer-Iter.   Inner-Iter.     Column Row Layer    Maximum-Head-Change  Column Row Layer    Maximum-Flux-Residual          L2-NORM 
          0                 1           2             5    8     1       0.3756883252E-01       5    8    1         0.2048252882E+01      0.4771882157E+01
          0                 2           2             4    7     1      -0.1326569973E+00       5    8    1        -0.7206214925E+01      0.1756715904E+02
          0                 3           2             4    7     1       0.9033361715E-02       5    8    1         0.5043971700E+00      0.1229632769E+01
          0                 4           2             4    7     1      -0.3594463323E-03       5    8    1        -0.2062664496E-01      0.5028732699E-01
          0                 5           1             4    7     1       0.4432128423E-05       5    6    1         0.2611901957E-03      0.6371905532E-03

    ------------------------------------------------
       NWT REQUIRED            5 OUTER ITERATIONS 
       AND A TOTAL OF          9 INNER ITERATIONS.
    ------------------------------------------------

 NO OUTPUT CONTROL FOR STRESS PERIOD   21   TIME STEP    1
 
 SOLVING FOR HEAD 
                                                   Max.-Head-Change                         Max.-Flux-Residual
  Residual-Control   Outer-Iter.   Inner-Iter.     Column Row Layer    Maximum-Head-Change  Column Row Layer    Maximum-Flux-Residual          L2-NORM 
          0                 1           2             5    8     1       0.3963332701E-01       5    8    1         0.2161483766E+01      0.5079969872E+01
          0                 2           2             5    7     1      -0.7412768096E-01       5    8    1        -0.4068750601E+01      0.9924562054E+01
          0                 3           2             4    7     1       0.4078044331E-01       5    8    1         0.2256554030E+01      0.5522371969E+01
          0                 4           2             4    7     1      -0.5134769431E-02       5    8    1        -0.2914485809E+00      0.7137081431E+00
          0                 5           1             4    7     1       0.6331377646E-04       4    8    1         0.3690303510E-02      0.9051628715E-02

    ------------------------------------------------
       NWT REQUIRED            5 OUTER ITERATIONS 
       AND A TOTAL OF          9 INNER ITERATIONS.
    ------------------------------------------------

 NO OUTPUT CONTROL FOR STRESS PERIOD   21   TIME STEP    2
 
 SOLVING FOR HEAD 
                                                   Max.-Head-Change                         Max.-Flux-Residual
  Residual-Control   Outer-Iter.   Inner-Iter.     Column Row Layer    Maximum-Head-Change  Column Row Layer    Maximum-Flux-Residual          L2-NORM 
          0                 1           2             5    8     1       0.3892703992E-01       5    8    1         0.2121734900E+01      0.5024152388E+01
          0                 2           2             5    7     1      -0.7412504340E-01       5    8    1        -0.4064732849E+01      0.9921439198E+01
          0                 3           2             4    7     1       0.1261210087E-01       5    8    1         0.7019304052E+00      0.1718117869E+01
          0                 4           2             4    7     1      -0.1421988271E-01       5    8    1        -0.8066980708E+00      0.1975773121E+01
          0                 5           2             4    7     1       0.1753361068E-03       4    7    1         0.1021930453E-01      0.2504169000E-01
          0                 6           1             4    7     1       0.2578708954E-05       5    8    1         0.1506213534E-03      0.3693036056E-03

    ------------------------------------------------
       NWT REQUIRED            6 OUTER ITERATIONS 
       AND A TOTAL OF         11 INNER ITERATIONS.
    ------------------------------------------------

 NO OUTPUT CONTROL FOR STRESS PERIOD   21   TIME STEP    3
 
 SOLVING FOR HEAD 
                                                   Max.-Head-Change                         Max.-Flux-Residual
  Residual-Control   Outer-Iter.   Inner-Iter.     Column Row Layer    Maximum-Head-Change  Column Row Layer    Maximum-Flux-Residual          L2-NORM 
          0                 1           2             5    8     1       0.3942908687E-01       5    8    1         0.2148746831E+01      0.5098556635E+01
          0                 2           2             5    7     1      -0.7418192158E-01       5    8    1        -0.4067489553E+01      0.9928741778E+01
          0                 3           2             4    7     1       0.1205613362E-01       5    8    1         0.6712255220E+00      0.1643145468E+01
          0                 4           2             4    7     1      -0.1452414665E-01       5    8    1        -0.8239520870E+00      0.2018037096E+01
          0                 5           2             4    7     1       0.1790877607E-03       4    7    1         0.1043795642E-01      0.2557723687E-01
          0                 6           1             4    7     1       0.2633885110E-05       5    8    1         0.1538425693E-03      0.3771979943E-03

    ------------------------------------------------
       NWT REQUIRED            6 OUTER ITERATIONS 
       AND A TOTAL OF         11 INNER ITERATIONS.
    ------------------------------------------------

 NO OUTPUT CONTROL FOR STRESS PERIOD   21   TIME STEP    4
 
 SOLVING FOR HEAD 
                                                   Max.-Head-Change                         Max.-Flux-Residual
  Residual-Control   Outer-Iter.   Inner-Iter.     Column Row Layer    Maximum-Head-Change  Column Row Layer    Maximum-Flux-Residual          L2-NORM 
          0                 1           2             5    8     1       0.3994109075E-01       5    8    1         0.2176314460E+01      0.5173764783E+01
          0                 2           2             5    7     1      -0.7423790365E-01       5    8    1        -0.4070247943E+01      0.9935967296E+01
          0                 3           2             4    7     1       0.1197198143E-01       5    8    1         0.6665574961E+00      0.1631760106E+01
          0                 4           2             4    7     1      -0.1450798599E-01       5    8    1        -0.8230336188E+00      0.2015788280E+01
          0                 5           2             4    7     1       0.1783076755E-03       4    7    1         0.1039247518E-01      0.2546584323E-01
          0                 6           1             4    7     1       0.2622412434E-05       5    8    1         0.1531726077E-03      0.3755614422E-03

    ------------------------------------------------
       NWT REQUIRED            6 OUTER ITERATIONS 
       AND A TOTAL OF         11 INNER ITERATIONS.
    ------------------------------------------------

 NO OUTPUT CONTROL FOR STRESS PERIOD   21   TIME STEP    5
 
 SOLVING FOR HEAD 
                                                   Max.-Head-Change                         Max.-Flux-Residual
  Residual-Control   Outer-Iter.   Inner-Iter.     Column Row Layer    Maximum-Head-Change  Column Row Layer    Maximum-Flux-Residual          L2-NORM 
          0                 1           2             5    8     1       0.4043775454E-01       5    8    1         0.2203040582E+01      0.5247078197E+01
          0                 2           2             5    7     1      -0.7429581389E-01       5    8    1        -0.4073086692E+01      0.9943440386E+01
          0                 3           2             4    7     1       0.1193510196E-01       5    8    1         0.6644938577E+00      0.1626740042E+01
          0                 4           2             4    7     1      -0.1446701961E-01       5    8    1        -0.8207081513E+00      0.2010093250E+01
          0                 5           2             4    7     1       0.1775080483E-03       4    7    1         0.1034585640E-01      0.2535163077E-01
          0                 6           1             4    7     1       0.2610651877E-05       5    8    1         0.1524856127E-03      0.3738724959E-03

    ------------------------------------------------
       NWT REQUIRED            6 OUTER ITERATIONS 
       AND A TOTAL OF         11 INNER ITERATIONS.
    ------------------------------------------------

 NO OUTPUT CONTROL FOR STRESS PERIOD   21   TIME STEP    6
 
 SOLVING FOR HEAD 
                                                   Max.-Head-Change                         Max.-Flux-Residual
  Residual-Control   Outer-Iter.   Inner-Iter.     Column Row Layer    Maximum-Head-Change  Column Row Layer    Maximum-Flux-Residual          L2-NORM 
          0                 1           2             5    8     1       0.4091789085E-01       5    8    1         0.2228859933E+01      0.5318341685E+01
          0                 2           2             4    7     1      -0.7435169137E-01       5    8    1        -0.4075668349E+01      0.9950333259E+01
          0                 3           2             4    7     1       0.1189392662E-01       5    8    1         0.6621890632E+00      0.1621133566E+01
          0                 4           2             4    7     1      -0.1442157727E-01       5    8    1        -0.8181286803E+00      0.2003776207E+01
          0                 5           2             4    7     1       0.1769395505E-03       4    7    1         0.1031271039E-01      0.2527038714E-01
          0                 6           1             4    7     1       0.2602291117E-05       5    8    1         0.1519968705E-03      0.3726738862E-03

    ------------------------------------------------
       NWT REQUIRED            6 OUTER ITERATIONS 
       AND A TOTAL OF         11 INNER ITERATIONS.
    ------------------------------------------------

 NO OUTPUT CONTROL FOR STRESS PERIOD   21   TIME STEP    7
 
 SOLVING FOR HEAD 
                                                   Max.-Head-Change                         Max.-Flux-Residual
  Residual-Control   Outer-Iter.   Inner-Iter.     Column Row Layer    Maximum-Head-Change  Column Row Layer    Maximum-Flux-Residual          L2-NORM 
          0                 1           2             5    8     1       0.4138214150E-01       5    8    1         0.2253807875E+01      0.5387613995E+01
          0                 2           2             4    7     1      -0.7440781292E-01       5    8    1        -0.4078163104E+01      0.9957060943E+01
          0                 3           2             4    7     1       0.1185279123E-01       5    8    1         0.6598827154E+00      0.1615527107E+01
          0                 4           2             4    7     1      -0.1437624563E-01       5    8    1        -0.8155553422E+00      0.1997474330E+01
          0                 5           2             4    7     1       0.1763969599E-03       4    7    1         0.1028107412E-01      0.2519284072E-01
          0                 6           1             4    7     1       0.2594310987E-05       5    8    1         0.1515303638E-03      0.3715729189E-03

    ------------------------------------------------
       NWT REQUIRED            6 OUTER ITERATIONS 
       AND A TOTAL OF         11 INNER ITERATIONS.
    ------------------------------------------------

 NO OUTPUT CONTROL FOR STRESS PERIOD   21   TIME STEP    8
 
 SOLVING FOR HEAD 
                                                   Max.-Head-Change                         Max.-Flux-Residual
  Residual-Control   Outer-Iter.   Inner-Iter.     Column Row Layer    Maximum-Head-Change  Column Row Layer    Maximum-Flux-Residual          L2-NORM 
          0                 1           2             5    8     1       0.4183136055E-01       5    8    1         0.2277932125E+01      0.5454997579E+01
          0                 2           2             4    7     1      -0.7446331142E-01       5    8    1        -0.4080575491E+01      0.9963629168E+01
          0                 3           2             4    7     1       0.1181169969E-01       5    8    1         0.6575753702E+00      0.1609922148E+01
          0                 4           2             4    7     1      -0.1433099121E-01       5    8    1        -0.8129862523E+00      0.1991183003E+01
          0                 5           2             4    7     1       0.1758553211E-03       4    7    1         0.1024949339E-01      0.2511542527E-01
          0                 6           1             4    7     1       0.2586344971E-05       5    8    1         0.1510646239E-03      0.3703859032E-03

    ------------------------------------------------
       NWT REQUIRED            6 OUTER ITERATIONS 
       AND A TOTAL OF         11 INNER ITERATIONS.
    ------------------------------------------------

 NO OUTPUT CONTROL FOR STRESS PERIOD   21   TIME STEP    9
 
 SOLVING FOR HEAD 
                                                   Max.-Head-Change                         Max.-Flux-Residual
  Residual-Control   Outer-Iter.   Inner-Iter.     Column Row Layer    Maximum-Head-Change  Column Row Layer    Maximum-Flux-Residual          L2-NORM 
          0                 1           2             5    8     1       0.4226634567E-01       5    8    1         0.2301276937E+01      0.5520565551E+01
          0                 2           2             4    7     1      -0.7451817429E-01       5    8    1        -0.4082909935E+01      0.9970043083E+01
          0                 3           2             4    7     1       0.1177062951E-01       5    8    1         0.6552661452E+00      0.1604315113E+01
          0                 4           2             4    7     1      -0.1428580050E-01       5    8    1        -0.8104206596E+00      0.1984900360E+01
          0                 5           2             4    7     1       0.1753144679E-03       4    7    1         0.1021795861E-01      0.2503812509E-01
          0                 6           1             4    7     1       0.2553848689E-05       5    8    1         0.1491690377E-03      0.3657495226E-03

    ------------------------------------------------
       NWT REQUIRED            6 OUTER ITERATIONS 
       AND A TOTAL OF         11 INNER ITERATIONS.
    ------------------------------------------------

 NO OUTPUT CONTROL FOR STRESS PERIOD   21   TIME STEP   10
 
 SOLVING FOR HEAD 
                                                   Max.-Head-Change                         Max.-Flux-Residual
  Residual-Control   Outer-Iter.   Inner-Iter.     Column Row Layer    Maximum-Head-Change  Column Row Layer    Maximum-Flux-Residual          L2-NORM 
          0                 1           2             5    8     1       0.4268770226E-01       5    8    1         0.2323875853E+01      0.5584390874E+01
          0                 2           2             4    7     1      -0.7457237657E-01       5    8    1        -0.4085169790E+01      0.9976308151E+01
          0                 3           2             4    7     1       0.1172959629E-01       5    8    1         0.6529562290E+00      0.1598709510E+01
          0                 4           2             4    7     1      -0.1424067412E-01       5    8    1        -0.8078586127E+00      0.1978626510E+01
          0                 5           2             4    7     1       0.1747335050E-03       4    7    1         0.1018408605E-01      0.2495509920E-01
          0                 6           1             4    7     1       0.2569846362E-05       5    8    1         0.1501000384E-03      0.3680437497E-03

    ------------------------------------------------
       NWT REQUIRED            6 OUTER ITERATIONS 
       AND A TOTAL OF         11 INNER ITERATIONS.
    ------------------------------------------------

 NO OUTPUT CONTROL FOR STRESS PERIOD   21   TIME STEP   11
 
 SOLVING FOR HEAD 
                                                   Max.-Head-Change                         Max.-Flux-Residual
  Residual-Control   Outer-Iter.   Inner-Iter.     Column Row Layer    Maximum-Head-Change  Column Row Layer    Maximum-Flux-Residual          L2-NORM 
          0                 1           2             5    8     1       0.4309614075E-01       5    8    1         0.2345768053E+01      0.5646543765E+01
          0                 2           2             4    7     1      -0.7462590998E-01       5    8    1        -0.4087358975E+01      0.9982429024E+01
          0                 3           2             4    7     1       0.1168857353E-01       5    8    1         0.6506444652E+00      0.1593101814E+01
          0                 4           2             4    7     1      -0.1419563622E-01       5    8    1        -0.8053014950E+00      0.1972364828E+01
          0                 5           2             4    7     1       0.1742027164E-03       4    7    1         0.1015313826E-01      0.2487922990E-01
          0                 6           1             4    7     1       0.2562039633E-05       5    8    1         0.1496435702E-03      0.3669048662E-03

    ------------------------------------------------
       NWT REQUIRED            6 OUTER ITERATIONS 
       AND A TOTAL OF         11 INNER ITERATIONS.
    ------------------------------------------------

 NO OUTPUT CONTROL FOR STRESS PERIOD   21   TIME STEP   12
 
 SOLVING FOR HEAD 
                                                   Max.-Head-Change                         Max.-Flux-Residual
  Residual-Control   Outer-Iter.   Inner-Iter.     Column Row Layer    Maximum-Head-Change  Column Row Layer    Maximum-Flux-Residual          L2-NORM 
          0                 1           2             5    8     1       0.4349231953E-01       5    8    1         0.2366990433E+01      0.5707093618E+01
          0                 2           2             4    7     1      -0.7467876731E-01       5    8    1        -0.4089481178E+01      0.9988410965E+01
          0                 3           2             4    7     1       0.1164758668E-01       5    8    1         0.6483325425E+00      0.1587496034E+01
          0                 4           2             4    7     1      -0.1415063738E-01       5    8    1        -0.8027465147E+00      0.1966108469E+01
          0                 5           2             4    7     1       0.1736396873E-03       4    7    1         0.1012031137E-01      0.2479876372E-01
          0                 6           1             4    7     1       0.2553759189E-05       5    8    1         0.1491594339E-03      0.3657167932E-03

    ------------------------------------------------
       NWT REQUIRED            6 OUTER ITERATIONS 
       AND A TOTAL OF         11 INNER ITERATIONS.
    ------------------------------------------------

 NO OUTPUT CONTROL FOR STRESS PERIOD   21   TIME STEP   13
 
 SOLVING FOR HEAD 
                                                   Max.-Head-Change                         Max.-Flux-Residual
  Residual-Control   Outer-Iter.   Inner-Iter.     Column Row Layer    Maximum-Head-Change  Column Row Layer    Maximum-Flux-Residual          L2-NORM 
          0                 1           2             5    8     1       0.4387700690E-01       5    8    1         0.2387584975E+01      0.5766100474E+01
          0                 2           2             4    7     1      -0.7473094349E-01       5    8    1        -0.4091540599E+01      0.9994258400E+01
          0                 3           2             4    7     1       0.1160662241E-01       5    8    1         0.6460200398E+00      0.1581890618E+01
          0                 4           2             4    7     1      -0.1410574011E-01       5    8    1        -0.8001972308E+00      0.1959866126E+01
          0                 5           2             4    7     1       0.1730942713E-03       4    7    1         0.1008851130E-01      0.2472080534E-01
          0                 6           1             4    7     1       0.2545737949E-05       5    8    1         0.1486903948E-03      0.3645657130E-03

    ------------------------------------------------
       NWT REQUIRED            6 OUTER ITERATIONS 
       AND A TOTAL OF         11 INNER ITERATIONS.
    ------------------------------------------------

 NO OUTPUT CONTROL FOR STRESS PERIOD   21   TIME STEP   14
 
 SOLVING FOR HEAD 
                                                   Max.-Head-Change                         Max.-Flux-Residual
  Residual-Control   Outer-Iter.   Inner-Iter.     Column Row Layer    Maximum-Head-Change  Column Row Layer    Maximum-Flux-Residual          L2-NORM 
          0                 1           2             5    8     1       0.4425049159E-01       5    8    1         0.2407567934E+01      0.5823636766E+01
          0                 2           2             4    7     1      -0.7478243488E-01       5    8    1        -0.4093538147E+01      0.9999975359E+01
          0                 3           2             4    7     1       0.1156565888E-01       5    8    1         0.6437058285E+00      0.1576282873E+01
          0                 4           2             4    7     1      -0.1406091833E-01       5    8    1        -0.7976521669E+00      0.1953634195E+01
          0                 5           2             4    7     1       0.1725906901E-03       4    7    1         0.1005914984E-01      0.2464881991E-01
          0                 6           1             4    7     1       0.2538331453E-05       5    8    1         0.1482572568E-03      0.3635040077E-03

    ------------------------------------------------
       NWT REQUIRED            6 OUTER ITERATIONS 
       AND A TOTAL OF         11 INNER ITERATIONS.
    ------------------------------------------------

 NO OUTPUT CONTROL FOR STRESS PERIOD   21   TIME STEP   15
 
 SOLVING FOR HEAD 
                                                   Max.-Head-Change                         Max.-Flux-Residual
  Residual-Control   Outer-Iter.   Inner-Iter.     Column Row Layer    Maximum-Head-Change  Column Row Layer    Maximum-Flux-Residual          L2-NORM 
          0                 1           2             5    8     1       0.4461332565E-01       5    8    1         0.2426969958E+01      0.5879735715E+01
          0                 2           2             4    7     1      -0.7483325592E-01       5    8    1        -0.4095479272E+01      0.1000556930E+02
          0                 3           2             4    7     1       0.1152479213E-01       5    8    1         0.6413955353E+00      0.1570686237E+01
          0                 4           2             4    7     1      -0.1401616745E-01       5    8    1        -0.7951110763E+00      0.1947412046E+01
          0                 5           2             4    7     1       0.1720470794E-03       4    7    1         0.1002745531E-01      0.2457111859E-01
          0                 6           1             4    7     1       0.2513974812E-05       5    8    1         0.1468360576E-03      0.3600258488E-03

    ------------------------------------------------
       NWT REQUIRED            6 OUTER ITERATIONS 
       AND A TOTAL OF         11 INNER ITERATIONS.
    ------------------------------------------------

 NO OUTPUT CONTROL FOR STRESS PERIOD   21   TIME STEP   16
 
 SOLVING FOR HEAD 
                                                   Max.-Head-Change                         Max.-Flux-Residual
  Residual-Control   Outer-Iter.   Inner-Iter.     Column Row Layer    Maximum-Head-Change  Column Row Layer    Maximum-Flux-Residual          L2-NORM 
          0                 1           2             5    8     1       0.4496631480E-01       5    8    1         0.2445835498E+01      0.5934473863E+01
          0                 2           2             4    7     1      -0.7488337039E-01       5    8    1        -0.4097365795E+01      0.1001103996E+02
          0                 3           2             4    7     1       0.1148389439E-01       5    8    1         0.6390823736E+00      0.1565083704E+01
          0                 4           2             4    7     1      -0.1397144874E-01       5    8    1        -0.7925717742E+00      0.1941194325E+01
          0                 5           2             4    7     1       0.1714711430E-03       4    7    1         0.9993876726E-02      0.2448881071E-01
          0                 6           1             4    7     1       0.2521866113E-05       5    8    1         0.1472945080E-03      0.3611426324E-03

    ------------------------------------------------
       NWT REQUIRED            6 OUTER ITERATIONS 
       AND A TOTAL OF         11 INNER ITERATIONS.
    ------------------------------------------------

 NO OUTPUT CONTROL FOR STRESS PERIOD   21   TIME STEP   17
 
 SOLVING FOR HEAD 
                                                   Max.-Head-Change                         Max.-Flux-Residual
  Residual-Control   Outer-Iter.   Inner-Iter.     Column Row Layer    Maximum-Head-Change  Column Row Layer    Maximum-Flux-Residual          L2-NORM 
          0                 1           2             5    8     1       0.4530950515E-01       5    8    1         0.2464166926E+01      0.5987885062E+01
          0                 2           2             4    7     1      -0.7493279176E-01       5    8    1        -0.4099198669E+01      0.1001639145E+02
          0                 3           2             4    7     1       0.1144302275E-01       5    8    1         0.6367695096E+00      0.1559483224E+01
          0                 4           2             4    7     1      -0.1392683175E-01       5    8    1        -0.7900382048E+00      0.1934990684E+01
          0                 5           2             4    7     1       0.1709373643E-03       4    7    1         0.9962755582E-02      0.2441251832E-01
          0                 6           1             4    7     1       0.2514015585E-05       5    8    1         0.1468354435E-03      0.3600243652E-03

    ------------------------------------------------
       NWT REQUIRED            6 OUTER ITERATIONS 
       AND A TOTAL OF         11 INNER ITERATIONS.
    ------------------------------------------------

 NO OUTPUT CONTROL FOR STRESS PERIOD   21   TIME STEP   18
 
 SOLVING FOR HEAD 
                                                   Max.-Head-Change                         Max.-Flux-Residual
  Residual-Control   Outer-Iter.   Inner-Iter.     Column Row Layer    Maximum-Head-Change  Column Row Layer    Maximum-Flux-Residual          L2-NORM 
          0                 1           2             5    8     1       0.4564350382E-01       5    8    1         0.2481998115E+01      0.6040031085E+01
          0                 2           2             4    7     1      -0.7498151578E-01       5    8    1        -0.4100981759E+01      0.1002163005E+02
          0                 3           2             4    7     1       0.1140216827E-01       5    8    1         0.6344567369E+00      0.1553883882E+01
          0                 4           2             4    7     1      -0.1388225725E-01       5    8    1        -0.7875070220E+00      0.1928792923E+01
          0                 5           2             4    7     1       0.1704041091E-03       4    7    1         0.9931665133E-02      0.2433629270E-01
          0                 6           1             4    7     1       0.2506172899E-05       5    8    1         0.1463768117E-03      0.3588933024E-03

    ------------------------------------------------
       NWT REQUIRED            6 OUTER ITERATIONS 
       AND A TOTAL OF         11 INNER ITERATIONS.
    ------------------------------------------------

 NO OUTPUT CONTROL FOR STRESS PERIOD   21   TIME STEP   19
 
 SOLVING FOR HEAD 
                                                   Max.-Head-Change                         Max.-Flux-Residual
  Residual-Control   Outer-Iter.   Inner-Iter.     Column Row Layer    Maximum-Head-Change  Column Row Layer    Maximum-Flux-Residual          L2-NORM 
          0                 1           2             5    8     1       0.4596888024E-01       5    8    1         0.2499360552E+01      0.6090999389E+01
          0                 2           2             4    7     1      -0.7502955862E-01       5    8    1        -0.4102718213E+01      0.1002675921E+02
          0                 3           2             4    7     1       0.1136135367E-01       5    8    1         0.6321454679E+00      0.1548288999E+01
          0                 4           2             4    7     1      -0.1383776399E-01       5    8    1        -0.7849804293E+00      0.1922606427E+01
          0                 5           2             4    7     1       0.1698554943E-03       4    7    1         0.9899679552E-02      0.2425788042E-01
          0                 6           1             4    7     1       0.2498104165E-05       5    8    1         0.1459050131E-03      0.3577375709E-03

    ------------------------------------------------
       NWT REQUIRED            6 OUTER ITERATIONS 
       AND A TOTAL OF         11 INNER ITERATIONS.
    ------------------------------------------------

 NO OUTPUT CONTROL FOR STRESS PERIOD   21   TIME STEP   20
 
 SOLVING FOR HEAD 
                                                   Max.-Head-Change                         Max.-Flux-Residual
  Residual-Control   Outer-Iter.   Inner-Iter.     Column Row Layer    Maximum-Head-Change  Column Row Layer    Maximum-Flux-Residual          L2-NORM 
          0                 1           2             5    8     1       0.4628574898E-01       5    8    1         0.2516260178E+01      0.6140775684E+01
          0                 2           2             4    7     1      -0.7507690081E-01       5    8    1        -0.4104408148E+01      0.1003178020E+02
          0                 3           2             4    7     1       0.1132056465E-01       5    8    1         0.6298349957E+00      0.1542696749E+01
          0                 4           2             4    7     1      -0.1379335560E-01       5    8    1        -0.7824586364E+00      0.1916431713E+01
          0                 5           2             4    7     1       0.1693242874E-03       4    7    1         0.9868708810E-02      0.2418195172E-01
          0                 6           1             4    7     1       0.2490291723E-05       5    8    1         0.1454481378E-03      0.3566168561E-03

    ------------------------------------------------
       NWT REQUIRED            6 OUTER ITERATIONS 
       AND A TOTAL OF         11 INNER ITERATIONS.
    ------------------------------------------------

 NO OUTPUT CONTROL FOR STRESS PERIOD   21   TIME STEP   21
 
 SOLVING FOR HEAD 
                                                   Max.-Head-Change                         Max.-Flux-Residual
  Residual-Control   Outer-Iter.   Inner-Iter.     Column Row Layer    Maximum-Head-Change  Column Row Layer    Maximum-Flux-Residual          L2-NORM 
          0                 1           2             5    8     1       0.4659463802E-01       5    8    1         0.2532726511E+01      0.6189417889E+01
          0                 2           2             4    7     1      -0.7512355059E-01       5    8    1        -0.4106054754E+01      0.1003669770E+02
          0                 3           2             4    7     1       0.1127978881E-01       5    8    1         0.6275248283E+00      0.1537105789E+01
          0                 4           2             4    7     1      -0.1374898955E-01       5    8    1        -0.7799392390E+00      0.1910262881E+01
          0                 5           2             4    7     1       0.1687608798E-03       4    7    1         0.9835861310E-02      0.2410142880E-01
          0                 6           1             4    7     1       0.2482005565E-05       5    8    1         0.1449636281E-03      0.3554317204E-03

    ------------------------------------------------
       NWT REQUIRED            6 OUTER ITERATIONS 
       AND A TOTAL OF         11 INNER ITERATIONS.
    ------------------------------------------------

 NO OUTPUT CONTROL FOR STRESS PERIOD   21   TIME STEP   22
 
 SOLVING FOR HEAD 
                                                   Max.-Head-Change                         Max.-Flux-Residual
  Residual-Control   Outer-Iter.   Inner-Iter.     Column Row Layer    Maximum-Head-Change  Column Row Layer    Maximum-Flux-Residual          L2-NORM 
          0                 1           2             5    8     1       0.4689576342E-01       5    8    1         0.2548771230E+01      0.6236941052E+01
          0                 2           2             4    7     1      -0.7516950833E-01       5    8    1        -0.4107658962E+01      0.1004151209E+02
          0                 3           2             4    7     1       0.1123901755E-01       5    8    1         0.6252145539E+00      0.1531514946E+01
          0                 4           2             4    7     1      -0.1370469493E-01       5    8    1        -0.7774238891E+00      0.1904103974E+01
          0                 5           2             4    7     1       0.1682310759E-03       4    7    1         0.9804972626E-02      0.2402568993E-01
          0                 6           1             4    7     1       0.2474213734E-05       5    8    1         0.1445079843E-03      0.3544823828E-03

    ------------------------------------------------
       NWT REQUIRED            6 OUTER ITERATIONS 
       AND A TOTAL OF         11 INNER ITERATIONS.
    ------------------------------------------------

 NO OUTPUT CONTROL FOR STRESS PERIOD   21   TIME STEP   23
 
 SOLVING FOR HEAD 
                                                   Max.-Head-Change                         Max.-Flux-Residual
  Residual-Control   Outer-Iter.   Inner-Iter.     Column Row Layer    Maximum-Head-Change  Column Row Layer    Maximum-Flux-Residual          L2-NORM 
          0                 1           2             5    8     1       0.4718961336E-01       5    8    1         0.2564421221E+01      0.6283414855E+01
          0                 2           2             4    7     1      -0.7521480120E-01       5    8    1        -0.4109223935E+01      0.1004623080E+02
          0                 3           2             4    7     1       0.1119828727E-01       5    8    1         0.6229063015E+00      0.1525929461E+01
          0                 4           2             4    7     1      -0.1366048159E-01       5    8    1        -0.7749131509E+00      0.1897956373E+01
          0                 5           2             4    7     1       0.1677022742E-03       4    7    1         0.9774142520E-02      0.2395011610E-01
          0                 6           1             4    7     1       0.2441893877E-05       5    8    1         0.1426226675E-03      0.3497020532E-03

    ------------------------------------------------
       NWT REQUIRED            6 OUTER ITERATIONS 
       AND A TOTAL OF         11 INNER ITERATIONS.
    ------------------------------------------------

 NO OUTPUT CONTROL FOR STRESS PERIOD   21   TIME STEP   24
 
 SOLVING FOR HEAD 
                                                   Max.-Head-Change                         Max.-Flux-Residual
  Residual-Control   Outer-Iter.   Inner-Iter.     Column Row Layer    Maximum-Head-Change  Column Row Layer    Maximum-Flux-Residual          L2-NORM 
          0                 1           2             5    8     1       0.4747650896E-01       5    8    1         0.2579693998E+01      0.6328856889E+01
          0                 2           2             4    7     1      -0.7525940424E-01       5    8    1        -0.4110751189E+01      0.1005085452E+02
          0                 3           2             4    7     1       0.1115757468E-01       5    8    1         0.6205989848E+00      0.1520346453E+01
          0                 4           2             4    7     1      -0.1361632338E-01       5    8    1        -0.7724055493E+00      0.1891816453E+01
          0                 5           2             4    7     1       0.1671577904E-03       4    7    1         0.9742398509E-02      0.2387229642E-01
          0                 6           1             4    7     1       0.2458428891E-05       5    8    1         0.1435849260E-03      0.3520498851E-03

    ------------------------------------------------
       NWT REQUIRED            6 OUTER ITERATIONS 
       AND A TOTAL OF         11 INNER ITERATIONS.
    ------------------------------------------------

 NO OUTPUT CONTROL FOR STRESS PERIOD   21   TIME STEP   25
 
 SOLVING FOR HEAD 
                                                   Max.-Head-Change                         Max.-Flux-Residual
  Residual-Control   Outer-Iter.   Inner-Iter.     Column Row Layer    Maximum-Head-Change  Column Row Layer    Maximum-Flux-Residual          L2-NORM 
          0                 1           2             5    8     1       0.4775646200E-01       5    8    1         0.2594590353E+01      0.6373292778E+01
          0                 2           2             4    7     1      -0.7530334136E-01       5    8    1        -0.4112241039E+01      0.1005538607E+02
          0                 3           2             4    7     1       0.1111689437E-01       5    8    1         0.6182933415E+00      0.1514767818E+01
          0                 4           2             4    7     1      -0.1357223771E-01       5    8    1        -0.7699020683E+00      0.1885686631E+01
          0                 5           2             4    7     1       0.1665978398E-03       4    7    1         0.9709753098E-02      0.2379227347E-01
          0                 6           1             4    7     1       0.2450192805E-05       5    8    1         0.1431034211E-03      0.3508692812E-03

    ------------------------------------------------
       NWT REQUIRED            6 OUTER ITERATIONS 
       AND A TOTAL OF         11 INNER ITERATIONS.
    ------------------------------------------------

 NO OUTPUT CONTROL FOR STRESS PERIOD   21   TIME STEP   26
 
 SOLVING FOR HEAD 
                                                   Max.-Head-Change                         Max.-Flux-Residual
  Residual-Control   Outer-Iter.   Inner-Iter.     Column Row Layer    Maximum-Head-Change  Column Row Layer    Maximum-Flux-Residual          L2-NORM 
          0                 1           2             5    8     1       0.4803005633E-01       5    8    1         0.2609142529E+01      0.6416776283E+01
          0                 2           2             4    7     1      -0.7534660634E-01       5    8    1        -0.4113695995E+01      0.1005982729E+02
          0                 3           2             4    7     1       0.1107622862E-01       5    8    1         0.6159885933E+00      0.1509191175E+01
          0                 4           2             4    7     1      -0.1352823647E-01       5    8    1        -0.7674033914E+00      0.1879568567E+01
          0                 5           2             4    7     1       0.1661043764E-03       4    7    1         0.9680983225E-02      0.2372173230E-01
          0                 6           1             4    7     1       0.2418393038E-05       5    8    1         0.1412484323E-03      0.3463407250E-03

    ------------------------------------------------
       NWT REQUIRED            6 OUTER ITERATIONS 
       AND A TOTAL OF         11 INNER ITERATIONS.
    ------------------------------------------------

 NO OUTPUT CONTROL FOR STRESS PERIOD   21   TIME STEP   27
 
 SOLVING FOR HEAD 
                                                   Max.-Head-Change                         Max.-Flux-Residual
  Residual-Control   Outer-Iter.   Inner-Iter.     Column Row Layer    Maximum-Head-Change  Column Row Layer    Maximum-Flux-Residual          L2-NORM 
          0                 1           2             5    8     1       0.4829741127E-01       5    8    1         0.2623357067E+01      0.6459331982E+01
          0                 2           2             4    7     1      -0.7538921973E-01       5    8    1        -0.4115117427E+01      0.1006418218E+02
          0                 3           2             4    7     1       0.1103557886E-01       5    8    1         0.6136848362E+00      0.1503616989E+01
          0                 4           2             4    7     1      -0.1348426508E-01       5    8    1        -0.7649064231E+00      0.1873454682E+01
          0                 5           2             4    7     1       0.1655376543E-03       4    7    1         0.9647943415E-02      0.2364073809E-01
          0                 6           1             4    7     1       0.2434600629E-05       5    8    1         0.1421916311E-03      0.3486385767E-03

    ------------------------------------------------
       NWT REQUIRED            6 OUTER ITERATIONS 
       AND A TOTAL OF         11 INNER ITERATIONS.
    ------------------------------------------------

 NO OUTPUT CONTROL FOR STRESS PERIOD   21   TIME STEP   28
 
 SOLVING FOR HEAD 
                                                   Max.-Head-Change                         Max.-Flux-Residual
  Residual-Control   Outer-Iter.   Inner-Iter.     Column Row Layer    Maximum-Head-Change  Column Row Layer    Maximum-Flux-Residual          L2-NORM 
          0                 1           2             5    8     1       0.4855879428E-01       5    8    1         0.2637248071E+01      0.6500982551E+01
          0                 2           2             4    7     1      -0.7543115833E-01       5    8    1        -0.4116506505E+01      0.1006845265E+02
          0                 3           2             4    7     1       0.1099495212E-01       5    8    1         0.6113826290E+00      0.1498046553E+01
          0                 4           2             4    7     1      -0.1344038687E-01       5    8    1        -0.7624147625E+00      0.1867353791E+01
          0                 5           2             4    7     1       0.1650293464E-03       4    7    1         0.9618308569E-02      0.2356808584E-01
          0                 6           1             4    7     1       0.2427124907E-05       5    8    1         0.1417544390E-03      0.3475625144E-03

    ------------------------------------------------
       NWT REQUIRED            6 OUTER ITERATIONS 
       AND A TOTAL OF         11 INNER ITERATIONS.
    ------------------------------------------------

 NO OUTPUT CONTROL FOR STRESS PERIOD   21   TIME STEP   29
 
 SOLVING FOR HEAD 
                                                   Max.-Head-Change                         Max.-Flux-Residual
  Residual-Control   Outer-Iter.   Inner-Iter.     Column Row Layer    Maximum-Head-Change  Column Row Layer    Maximum-Flux-Residual          L2-NORM 
          0                 1           2             5    8     1       0.4881444605E-01       5    8    1         0.2650829394E+01      0.6541767991E+01
          0                 2           2             4    7     1      -0.7547247541E-01       5    8    1        -0.4117864855E+01      0.1007264240E+02
          0                 3           2             4    7     1       0.1095436502E-01       5    8    1         0.6090828007E+00      0.1492481878E+01
          0                 4           2             4    7     1      -0.1339657730E-01       5    8    1        -0.7599270131E+00      0.1861262468E+01
          0                 5           2             4    7     1       0.1644973422E-03       4    7    1         0.9587292686E-02      0.2349205005E-01
          0                 6           1             4    7     1       0.2419300816E-05       5    8    1         0.1412969241E-03      0.3464377937E-03

    ------------------------------------------------
       NWT REQUIRED            6 OUTER ITERATIONS 
       AND A TOTAL OF         11 INNER ITERATIONS.
    ------------------------------------------------

 NO OUTPUT CONTROL FOR STRESS PERIOD   21   TIME STEP   30



 STREAM LISTING     PERIOD     21   STEP       30

 LAYER ROW COL. STREAM  RCH.  FLOW INTO     FLOW TO   FLOW OUT OF   OVRLND.     DIRECT     STREAM       STREAM     STREAM     STREAM   STREAMBED  STREAMBED
                SEG.NO.  NO.  STRM. RCH.    AQUIFER    STRM. RCH.    RUNOFF     PRECIP       ET          HEAD       DEPTH      WIDTH   CONDCTNC.   GRADIENT

   1    1    1     1     1    2.7750E+01  2.5751E-01   2.7493E+01  0.000E+00  0.000E+00  0.000E+00  1.09427E+03  1.218E+00  1.357E+01  6.105E-02  1.406E+00
   1    2    2     1     2    2.7493E+01  3.9833E-01   2.7095E+01  0.000E+00  0.000E+00  0.000E+00  1.08927E+03  1.213E+00  1.351E+01  9.454E-02  1.404E+00
   1    3    3     1     3    2.7095E+01  3.3924E-01   2.6755E+01  0.000E+00  0.000E+00  0.000E+00  1.08363E+03  1.208E+00  1.344E+01  8.062E-02  1.403E+00
   1    3    4     1     4    2.6755E+01  3.1201E-01   2.6443E+01  0.000E+00  0.000E+00  0.000E+00  1.07861E+03  1.203E+00  1.337E+01  7.423E-02  1.401E+00
   1    4    5     2     1    2.4443E+01  3.2655E-01   2.4117E+01  0.000E+00  0.000E+00  0.000E+00  1.07312E+03  1.187E+00  1.200E+01  7.800E-02  1.396E+00
   1    5    6     2     2    2.4117E+01  2.5069E-01   2.3866E+01  0.000E+00  0.000E+00  0.000E+00  1.06769E+03  1.178E+00  1.200E+01  6.000E-02  1.393E+00
   1    6    6     2     3    2.3866E+01  2.5024E-01   2.3616E+01  0.000E+00  0.000E+00  0.000E+00  1.06296E+03  1.171E+00  1.200E+01  6.000E-02  1.390E+00
   1    7    6     2     4    2.3616E+01  2.4980E-01   2.3366E+01  0.000E+00  0.000E+00  0.000E+00  1.05824E+03  1.163E+00  1.200E+01  6.000E-02  1.388E+00
   1    8    6     2     5    2.3366E+01  2.4935E-01   2.3117E+01  0.000E+00  0.000E+00  0.000E+00  1.05351E+03  1.156E+00  1.200E+01  6.000E-02  1.385E+00
   1    3    5     3     1    2.0000E+00  2.8252E-01   1.7175E+00  0.000E+00  0.000E+00  0.000E+00  1.07555E+03  1.909E+00  9.636E+00  7.227E-02  1.955E+00
   1    3    6     3     2    1.7175E+00  2.4905E-01   1.4684E+00  0.000E+00  0.000E+00  0.000E+00  1.07264E+03  1.727E+00  8.909E+00  6.682E-02  1.864E+00
   1    3    7     3     3    1.4684E+00  1.9718E-01   1.2712E+00  0.000E+00  0.000E+00  0.000E+00  1.06987E+03  1.555E+00  8.218E+00  5.547E-02  1.777E+00
   1    4    8     3     4    1.2712E+00  2.2567E-01   1.0456E+00  0.000E+00  0.000E+00  0.000E+00  1.06682E+03  1.364E+00  7.455E+00  6.709E-02  1.682E+00
   1    5    8     3     5    1.0456E+00  1.5790E-01   8.8768E-01  0.000E+00  0.000E+00  0.000E+00  1.06362E+03  1.164E+00  6.655E+00  4.991E-02  1.582E+00
   1    6    8     3     6    8.8768E-01  5.5980E-02   8.3170E-01  0.000E+00  0.000E+00  0.000E+00  1.06158E+03  1.036E+00  6.145E+00  1.844E-02  1.518E+00
   1    5   10     4     1    1.0000E+01  9.0919E-02   9.9091E+00  0.000E+00  0.000E+00  0.000E+00  1.07836E+03  6.368E-01  1.000E+01  2.500E-02  1.212E+00
   1    5    9     4     2    9.9091E+00  1.8158E-01   9.7275E+00  0.000E+00  0.000E+00  0.000E+00  1.07154E+03  6.315E-01  1.000E+01  5.000E-02  1.211E+00
   1    6    8     4     3    9.7275E+00  1.2689E-01   9.6006E+00  0.000E+00  0.000E+00  0.000E+00  1.06381E+03  6.256E-01  1.000E+01  3.500E-02  1.209E+00
   1    6    8     5     1    1.0432E+01  2.2686E-01   1.0205E+01  0.000E+00  0.000E+00  0.000E+00  1.05868E+03  6.790E-01  1.542E+01  6.166E-02  1.226E+00
   1    7    7     5     2    1.0205E+01  2.7894E-01   9.9265E+00  0.000E+00  0.000E+00  0.000E+00  1.05417E+03  6.732E-01  1.519E+01  7.594E-02  1.224E+00
   1    8    7     5     3    9.9265E+00  1.9221E-01   9.7343E+00  0.000E+00  0.000E+00  0.000E+00  1.04992E+03  6.676E-01  1.497E+01  5.241E-02  1.223E+00
   1    8    6     5     4    9.7343E+00  1.3577E-01   9.5985E+00  0.000E+00  0.000E+00  0.000E+00  1.04691E+03  6.637E-01  1.482E+01  3.706E-02  1.221E+00
   1    9    6     6     1    9.5985E+00  2.2097E-01   9.3776E+00  0.000E+00  0.000E+00  0.000E+00  1.04341E+03  6.828E-01  1.200E+01  6.000E-02  1.228E+00
   1   10    7     6     2    9.3776E+00  2.2039E-01   9.1572E+00  0.000E+00  0.000E+00  0.000E+00  1.03885E+03  6.732E-01  1.200E+01  6.000E-02  1.224E+00
   1   11    7     6     3    9.1572E+00  2.1981E-01   8.9374E+00  0.000E+00  0.000E+00  0.000E+00  1.03430E+03  6.636E-01  1.200E+01  6.000E-02  1.221E+00
   1   12    7     6     4    8.9374E+00  2.1923E-01   8.7181E+00  0.000E+00  0.000E+00  0.000E+00  1.02974E+03  6.539E-01  1.200E+01  6.000E-02  1.218E+00
   1   13    7     6     5    8.7181E+00 -1.1829E-01   8.8364E+00  0.000E+00  0.000E+00  0.000E+00  1.02656E+03  6.516E-01  1.200E+01  2.400E-01 -1.643E-01
   1   14    9     7     1    1.5000E+02  1.3371E+00   1.4866E+02  0.000E+00  0.000E+00  0.000E+00  1.03987E+03  2.288E+00  5.529E+01  5.593E-01  7.969E-01
   1   13    8     7     2    1.4866E+02  1.8317E+00   1.4683E+02  0.000E+00  0.000E+00  0.000E+00  1.03478E+03  2.279E+00  5.526E+01  6.148E-01  9.932E-01
   1   13    7     7     3    1.4683E+02  1.4722E+00   1.4536E+02  0.000E+00  0.000E+00  0.000E+00  1.02969E+03  2.270E+00  5.522E+01  5.585E-01  8.787E-01
   1   13    6     8     1    1.5420E+02  8.2839E-01   1.5337E+02  0.000E+00  0.000E+00  0.000E+00  1.02472E+03  2.843E+00  4.123E+01  4.201E-01  6.573E-01
   1   13    5     8     2    1.5337E+02  1.0507E-01   1.5326E+02  0.000E+00  0.000E+00  0.000E+00  1.01847E+03  2.840E+00  4.118E+01  4.196E-01  8.346E-02
   1   13    4     8     3    1.5326E+02 -2.6454E+00   1.5591E+02  0.000E+00  0.000E+00  0.000E+00  1.01222E+03  2.849E+00  4.131E+01  4.209E+00 -2.095E-01
   1   13    3     8     4    1.5591E+02 -3.7436E+00   1.5965E+02  0.000E+00  0.000E+00  0.000E+00  1.00600E+03  2.871E+00  4.163E+01  4.242E+00 -2.942E-01
   1   13    2     8     5    1.5965E+02 -2.6106E+00   1.6226E+02  0.000E+00  0.000E+00  0.000E+00  9.99767E+02  2.892E+00  4.194E+01  4.274E+00 -2.036E-01
   1   13    1     8     6    1.6226E+02 -1.9995E+00   1.6426E+02  0.000E+00  0.000E+00  0.000E+00  9.94783E+02  2.908E+00  4.216E+01  2.578E+00 -2.585E-01
   1    8    6     9     1    2.3117E+01  0.0000E+00   2.3117E+01  0.000E+00  0.000E+00  0.000E+00  1.08250E+03  3.747E+00  4.000E+00  0.000E+00  2.249E+00
   1    8    5     9     2    2.3117E+01  0.0000E+00   2.3117E+01  0.000E+00  0.000E+00  0.000E+00  1.08200E+03  3.747E+00  4.000E+00  0.000E+00  2.249E+00





UNSATURATED ZONE PACKAGE VOLUMETRIC BUDGET FOR  TIME STEP    30 STRESS PERIOD   21
  ------------------------------------------------------------------------------



     CUMULATIVE VOLUMES      L**3       RATES FOR THIS TIME STEP      L**3/T
     ------------------                 ------------------------

           IN:                                      IN:
           ---                                      ---
        INFILTRATION =   902123594.1504          INFILTRATION =          49.5667

          OUT:                                     OUT:
          ----                                     ----
              UZF ET =   822171235.3920                UZF ET =          49.5675
        UZF RECHARGE =       73224.0000          UZF RECHARGE =       0.0000E+00

            IN - OUT =    79879134.7584              IN - OUT =      -7.7820E-04

          STORAGE:                                 STORAGE:
          --------                                 --------
      STORAGE CHANGE =    79914899.0916        STORAGE CHANGE =      -7.7415E-04

 PERCENT DISCREPANCY IS DIFFERENCE BETWEEN IN-OUT MINUS CHANGE IN STORAGE
 DIVIDED BY THE AVERAGE OF IN AND OUT TIMES 100

 PERCENT DISCREPANCY =          -0.00     PERCENT DISCREPANCY =          -0.00






1
  VOLUMETRIC BUDGET FOR AGRICULTURAL FIELDS AT  END OF TIME STEP   30, STRESS PERIOD  21
  ------------------------------------------------------------------------------

     CUMULATIVE VOLUMES      L**3       RATES FOR THIS TIME STEP      L**3/T
     ------------------                 ------------------------

           IN:                                      IN:
           ---                                      ---
           AG WELLS      =   257841216.0000             AG WELLS      =          25.6021
      DIVERSION SEGMENTS =   599625856.0000        DIVERSION SEGMENTS =          23.1167
           GW IRRIGATION =           0.0000             GW IRRIGATION =           0.0000
           SW IRRIGATION =           0.0000             SW IRRIGATION =           0.0000
        SYSTEM LOSSES GW =           0.0000          SYSTEM LOSSES GW =           0.0000
        SYSTEM LOSSES SW =           0.0000          SYSTEM LOSSES SW =           0.0000

                TOTAL IN =   857467072.0000                  TOTAL IN =          48.7188

          OUT:                                     OUT:
          ----                                     ----
           AG WELLS      =           0.0000             AG WELLS      =           0.0000
      DIVERSION SEGMENTS =           0.0000        DIVERSION SEGMENTS =           0.0000
           GW IRRIGATION =   257841216.0000             GW IRRIGATION =          25.6021
           SW IRRIGATION =   599638592.0000             SW IRRIGATION =          23.1172
        SYSTEM LOSSES GW =           0.0000          SYSTEM LOSSES GW =           0.0000
        SYSTEM LOSSES SW =           0.0000          SYSTEM LOSSES SW =           0.0000

               TOTAL OUT =   857479808.0000                 TOTAL OUT =          48.7192

                IN - OUT =      -12736.0000                  IN - OUT =      -4.6158E-04

     PERCENT DISCREPANCY =          -0.00         PERCENT DISCREPANCY =          -0.00



1
  VOLUMETRIC BUDGET FOR ENTIRE MODEL AT END OF TIME STEP   30, STRESS PERIOD  21
  ------------------------------------------------------------------------------

     CUMULATIVE VOLUMES      L**3       RATES FOR THIS TIME STEP      L**3/T
     ------------------                 ------------------------

           IN:                                      IN:
           ---                                      ---
             STORAGE     =   349747136.0000               STORAGE     =          25.5325
       CONSTANT HEAD     =           0.0000         CONSTANT HEAD     =           0.0000
     HEAD DEP BOUNDS     =    15056140.0000       HEAD DEP BOUNDS     =           0.2858
      STREAM LEAKAGE     =   631935040.0000        STREAM LEAKAGE     =          11.4900
        UZF RECHARGE     =       73223.9531          UZF RECHARGE     =           0.0000
               GW ET     =           0.0000                 GW ET     =           0.0000
     SURFACE LEAKAGE     =           0.0000       SURFACE LEAKAGE     =           0.0000
           AG WELLS      =           0.0000             AG WELLS      =           0.0000

                TOTAL IN =   996811520.0000                  TOTAL IN =          37.3083

          OUT:                                     OUT:
          ----                                     ----
             STORAGE     =   149919776.0000               STORAGE     =           0.3016
       CONSTANT HEAD     =           0.0000         CONSTANT HEAD     =           0.0000
     HEAD DEP BOUNDS     =    15329363.0000       HEAD DEP BOUNDS     =           0.2872
      STREAM LEAKAGE     =   571505536.0000        STREAM LEAKAGE     =          11.1174
        UZF RECHARGE     =           0.0000          UZF RECHARGE     =           0.0000
               GW ET     =     2220319.5000                 GW ET     =           0.0000
     SURFACE LEAKAGE     =           0.0000       SURFACE LEAKAGE     =           0.0000
           AG WELLS      =   257841216.0000             AG WELLS      =          25.6021

               TOTAL OUT =   996816192.0000                 TOTAL OUT =          37.3083

                IN - OUT =       -4672.0000                  IN - OUT =       1.9073E-05

     PERCENT DISCREPANCY =          -0.00         PERCENT DISCREPANCY =           0.00






         TIME SUMMARY AT END OF TIME STEP   30 IN STRESS PERIOD   21
                    SECONDS     MINUTES      HOURS       DAYS        YEARS
                    -----------------------------------------------------------
   TIME STEP LENGTH  87667.      1461.1      24.352      1.0147     2.77799E-03
 STRESS PERIOD TIME 2.63000E+06  43833.      730.56      30.440     8.33397E-02
         TOTAL TIME 5.26866E+07 8.78110E+05  14635.      609.80      1.6695    
1
1
                            STRESS PERIOD NO.   22, LENGTH =   2630000.    
                            -----------------------------------------------

                              NUMBER OF TIME STEPS =    30

                               MULTIPLIER FOR DELT =     1.000

                            INITIAL TIME STEP SIZE =   87666.66    

 REUSING NON-PARAMETER GHB CELLS FROM LAST STRESS PERIOD

      2 GHB CELLS

 REUSING STREAM SEGMENT DATA FROM LAST STRESS PERIOD



            AREAL INFILTRATION RATE
 READING ON UNIT   19 WITH FORMAT: (FREE)              

            1           2           3           4           5           6           7           8           9          10
 ........................................................................................................................
   1   1.0000E-10  2.0000E-10   0.000       0.000       0.000       0.000       0.000       0.000       0.000       0.000    
   2   2.0000E-10  1.0000E-10  2.0000E-10   0.000       0.000      8.0000E-10  8.0000E-10  5.0000E-10   0.000       0.000    
   3    0.000      5.0000E-10  1.0000E-10  1.0000E-10  8.0000E-10  8.0000E-10  5.0000E-10  5.0000E-10   0.000       0.000    
   4   8.0000E-10  5.0000E-10  1.0000E-10  1.0000E-10  1.0000E-10  1.0000E-10  1.0000E-10  1.0000E-10  2.0000E-10   0.000    
   5   8.0000E-10  5.0000E-10  1.0000E-10  1.0000E-10  1.0000E-10  1.0000E-10  1.0000E-10  1.0000E-10  1.0000E-10  1.0000E-10
   6   8.0000E-10  5.0000E-10  5.0000E-10  2.0000E-10  2.0000E-10  1.0000E-10  1.0000E-10  1.0000E-10  1.0000E-10  5.0000E-10
   7   8.0000E-10  5.0000E-10  5.0000E-10  2.0000E-10  2.0000E-10  1.0000E-10  1.0000E-10  2.0000E-10  2.0000E-10   0.000    
   8    0.000      5.0000E-10  5.0000E-10  2.0000E-10  2.0000E-10  1.0000E-10  1.0000E-10  2.0000E-10  5.0000E-10   0.000    
   9    0.000      5.0000E-10  5.0000E-10  2.0000E-10  2.0000E-10  1.0000E-10  1.0000E-10  2.0000E-10  5.0000E-10   0.000    
  10    0.000      5.0000E-10  5.0000E-10  2.0000E-10  2.0000E-10  1.0000E-10  1.0000E-10  2.0000E-10  5.0000E-10  8.0000E-10
  11    0.000      1.0000E-10  1.0000E-10  1.0000E-10  1.0000E-10  1.0000E-10  1.0000E-10  2.0000E-10  5.0000E-10   0.000    
  12   1.0000E-10  1.0000E-10  1.0000E-10  1.0000E-10  1.0000E-10  1.0000E-10  1.0000E-10  1.0000E-10  2.0000E-10   0.000    
  13   1.0000E-10  1.0000E-10  2.0000E-10  2.0000E-10  2.0000E-10  2.0000E-10  2.0000E-10  1.0000E-10  1.0000E-10   0.000    
  14    0.000      2.0000E-10  5.0000E-10  5.0000E-10  5.0000E-10  5.0000E-10  5.0000E-10  2.0000E-10  1.0000E-10   0.000    
  15    0.000       0.000      8.0000E-10  8.0000E-10  8.0000E-10  8.0000E-10   0.000       0.000       0.000       0.000    

                  ET RATE =  7.500000E-08

 USING ET EXTINCTION DEPTH FROM PREVIOUS STRESS PERIOD. CURRENT PERIOD IS:      22

 USING EXTINCTION WATER CONTENT FROM PREVIOUS STRESS PERIOD. CURRENT PERIOD IS:      22

 USING AIR ENTRY PRESSURE FROM PREVIOUS STRESS PERIOD. CURRENT PERIOD IS:      22

 USING ROOT PRESSURE HEAD FROM PREVIOUS STRESS PERIOD. CURRENT PERIOD IS:      22

 USING ROOT ACTIVITY FROM PREVIOUS STRESS PERIOD. CURRENT PERIOD IS:      22

 PROCESSING AG STRESS PERIOD DATA

 READING AG STRESS PERIOD DATA

 READING IRRIGATION SEGMENT

 READING IRRIGATION WELL

 READING SUPPLEMENTAL WELL

 END PROCESSING AG STRESS PERIOD DATA OPTIONS
 
 SOLVING FOR HEAD 
                                                   Max.-Head-Change                         Max.-Flux-Residual
  Residual-Control   Outer-Iter.   Inner-Iter.     Column Row Layer    Maximum-Head-Change  Column Row Layer    Maximum-Flux-Residual          L2-NORM 
          0                 1           2             5    8     1       0.4906044365E-01       5    8    1         0.2664105694E+01      0.6536596384E+01
          0                 2           2             5    8     1      -0.4772210102E-02       5    8    1        -0.2664082628E+00      0.6536443197E+00
          0                 3           2             5    8     1       0.3249701416E-03       5    8    1         0.1864860828E-01      0.4575444884E-01
          0                 4           1             5    8     1      -0.1293086498E-04       5    8    1        -0.7627290474E-03      0.1871299965E-02

    ------------------------------------------------
       NWT REQUIRED            4 OUTER ITERATIONS 
       AND A TOTAL OF          7 INNER ITERATIONS.
    ------------------------------------------------

 NO OUTPUT CONTROL FOR STRESS PERIOD   22   TIME STEP    1
 
 SOLVING FOR HEAD 
                                                   Max.-Head-Change                         Max.-Flux-Residual
  Residual-Control   Outer-Iter.   Inner-Iter.     Column Row Layer    Maximum-Head-Change  Column Row Layer    Maximum-Flux-Residual          L2-NORM 
          0                 1           2             5    6     1       0.4699444491E-01       5    8    1         0.2549503092E+01      0.6350656733E+01
          0                 2           2             5    6     1      -0.4571246026E-02       5    8    1        -0.2549481731E+00      0.6349866608E+00
          0                 3           2             4    7     1      -0.2097563667E-01       4    7    1        -0.1125873155E+01      0.2764792541E+01
          0                 4           2             4    7     1       0.2155416548E-01       4    7    1         0.1189212139E+01      0.2912952013E+01
          0                 5           2             4    7     1      -0.6030784363E+00       5    8    1        -0.3420106051E+02      0.8377565238E+02
          0                 6           2             4    7     1       0.2866460203E-01       5    8    1         0.1671226210E+01      0.4093307831E+01
          0                 7           2             4    7     1       0.4213102093E-03       4    7    1         0.2455613536E-01      0.6014834107E-01
          0                 8           1             4    7     1       0.6188248077E-05       4    7    1         0.3606490131E-03      0.8836196345E-03

    ------------------------------------------------
       NWT REQUIRED            8 OUTER ITERATIONS 
       AND A TOTAL OF         15 INNER ITERATIONS.
    ------------------------------------------------

 NO OUTPUT CONTROL FOR STRESS PERIOD   22   TIME STEP    2
 
 SOLVING FOR HEAD 
                                                   Max.-Head-Change                         Max.-Flux-Residual
  Residual-Control   Outer-Iter.   Inner-Iter.     Column Row Layer    Maximum-Head-Change  Column Row Layer    Maximum-Flux-Residual          L2-NORM 
          0                 1           2             5    8     1       0.6287608289E-01       5    8    1         0.3425727238E+01      0.8068682817E+01
          0                 2           2             5    8     1      -0.6116074800E-02       5    8    1        -0.3425690040E+00      0.8067992829E+00
          0                 3           2             5    8     1       0.4164825455E-03       5    8    1         0.2397987594E-01      0.5646767257E-01
          0                 4           1             5    8     1      -0.1657222814E-04       5    8    1        -0.9807781316E-03      0.2309012479E-02

    ------------------------------------------------
       NWT REQUIRED            4 OUTER ITERATIONS 
       AND A TOTAL OF          7 INNER ITERATIONS.
    ------------------------------------------------

 NO OUTPUT CONTROL FOR STRESS PERIOD   22   TIME STEP    3
 
 SOLVING FOR HEAD 
                                                   Max.-Head-Change                         Max.-Flux-Residual
  Residual-Control   Outer-Iter.   Inner-Iter.     Column Row Layer    Maximum-Head-Change  Column Row Layer    Maximum-Flux-Residual          L2-NORM 
          0                 1           2             5    8     1       0.6002923258E-01       5    8    1         0.3267448814E+01      0.7788553673E+01
          0                 2           2             5    8     1      -0.5839158566E-02       5    8    1        -0.3267414875E+00      0.7787625644E+00
          0                 3           2             5    8     1       0.3976255310E-03       5    8    1         0.2287194622E-01      0.5450602053E-01
          0                 4           1             5    8     1      -0.1582188999E-04       5    8    1        -0.9354637666E-03      0.2228730345E-02

    ------------------------------------------------
       NWT REQUIRED            4 OUTER ITERATIONS 
       AND A TOTAL OF          7 INNER ITERATIONS.
    ------------------------------------------------

 NO OUTPUT CONTROL FOR STRESS PERIOD   22   TIME STEP    4
 
 SOLVING FOR HEAD 
                                                   Max.-Head-Change                         Max.-Flux-Residual
  Residual-Control   Outer-Iter.   Inner-Iter.     Column Row Layer    Maximum-Head-Change  Column Row Layer    Maximum-Flux-Residual          L2-NORM 
          0                 1           2             5    8     1       0.5736618748E-01       5    8    1         0.3119504215E+01      0.7525378183E+01
          0                 2           2             5    8     1      -0.5580121009E-02       5    8    1        -0.3119473141E+00      0.7524561063E+00
          0                 3           2             5    8     1       0.3799859932E-03       5    8    1         0.2183635092E-01      0.5266553299E-01
          0                 4           1             5    8     1      -0.1511999627E-04       5    8    1        -0.8931078626E-03      0.2153607639E-02

    ------------------------------------------------
       NWT REQUIRED            4 OUTER ITERATIONS 
       AND A TOTAL OF          7 INNER ITERATIONS.
    ------------------------------------------------

 NO OUTPUT CONTROL FOR STRESS PERIOD   22   TIME STEP    5
 
 SOLVING FOR HEAD 
                                                   Max.-Head-Change                         Max.-Flux-Residual
  Residual-Control   Outer-Iter.   Inner-Iter.     Column Row Layer    Maximum-Head-Change  Column Row Layer    Maximum-Flux-Residual          L2-NORM 
          0                 1           2             5    8     1       0.5487317685E-01       5    8    1         0.2981113287E+01      0.7277801839E+01
          0                 2           2             5    8     1      -0.5604076003E-02       5    8    1        -0.3127813308E+00      0.7601827667E+00
          0                 3           2             4    7     1      -0.4555594058E-02       4    7    1        -0.2446001151E+00      0.5945883268E+00
          0                 4           2             4    7     1      -0.4179363695E-02       5    8    1        -0.2246919384E+00      0.5629703008E+00
          0                 5           2             4    7     1       0.9393293183E-02       5    8    1         0.5182760767E+00      0.1269490568E+01
          0                 6           2             4    7     1      -0.3472561471E-03       5    8    1        -0.1970082902E-01      0.4836013886E-01
          0                 7           1             4    7     1      -0.6883164195E-04       4    7    1        -0.3903380423E-02      0.1036622885E-01

    ------------------------------------------------
       NWT REQUIRED            7 OUTER ITERATIONS 
       AND A TOTAL OF         13 INNER ITERATIONS.
    ------------------------------------------------

 NO OUTPUT CONTROL FOR STRESS PERIOD   22   TIME STEP    6
 
 SOLVING FOR HEAD 
                                                   Max.-Head-Change                         Max.-Flux-Residual
  Residual-Control   Outer-Iter.   Inner-Iter.     Column Row Layer    Maximum-Head-Change  Column Row Layer    Maximum-Flux-Residual          L2-NORM 
          0                 1           2             5    8     1       0.5254680142E-01       5    8    1         0.2852074316E+01      0.7046246995E+01
          0                 2           2             5    6     1      -0.2362505999E-01       5    8    1        -0.1303664825E+01      0.3154727199E+01
          0                 3           2             4    7     1      -0.1520298488E+00       4    7    1        -0.8159815724E+01      0.1998291136E+02
          0                 4           2             4    7     1       0.3520909589E-01       4    7    1         0.1942583579E+01      0.4758046582E+01
          0                 5           2             4    7     1      -0.1401342320E-02       5    8    1        -0.7948479281E-01      0.1946955598E+00
          0                 6           1             4    7     1       0.1729197518E-04       5    8    1         0.1008345916E-02      0.2470001396E-02

    ------------------------------------------------
       NWT REQUIRED            6 OUTER ITERATIONS 
       AND A TOTAL OF         11 INNER ITERATIONS.
    ------------------------------------------------

 NO OUTPUT CONTROL FOR STRESS PERIOD   22   TIME STEP    7
 
 SOLVING FOR HEAD 
                                                   Max.-Head-Change                         Max.-Flux-Residual
  Residual-Control   Outer-Iter.   Inner-Iter.     Column Row Layer    Maximum-Head-Change  Column Row Layer    Maximum-Flux-Residual          L2-NORM 
          0                 1           2             5    8     1       0.5462591503E-01       5    8    1         0.2966325038E+01      0.7279979711E+01
          0                 2           2             5    8     1      -0.5313571309E-02       5    8    1        -0.2966296805E+00      0.7279564842E+00
          0                 3           2             5    8     1       0.3618349069E-03       5    8    1         0.2076411342E-01      0.5095146310E-01
          0                 4           1             5    8     1      -0.1439774787E-04       5    8    1        -0.8492533038E-03      0.2083540817E-02

    ------------------------------------------------
       NWT REQUIRED            4 OUTER ITERATIONS 
       AND A TOTAL OF          7 INNER ITERATIONS.
    ------------------------------------------------

 NO OUTPUT CONTROL FOR STRESS PERIOD   22   TIME STEP    8
 
 SOLVING FOR HEAD 
                                                   Max.-Head-Change                         Max.-Flux-Residual
  Residual-Control   Outer-Iter.   Inner-Iter.     Column Row Layer    Maximum-Head-Change  Column Row Layer    Maximum-Flux-Residual          L2-NORM 
          0                 1           2             5    8     1       0.5232447052E-01       5    8    1         0.2838709683E+01      0.7049880704E+01
          0                 2           2             5    8     1      -0.5089706659E-02       5    8    1        -0.2838683635E+00      0.7049264311E+00
          0                 3           2             5    8     1       0.3465905233E-03       5    8    1         0.1987081877E-01      0.4934005215E-01
          0                 4           1             5    8     1      -0.1379115954E-04       5    8    1        -0.8127174981E-03      0.2017731690E-02

    ------------------------------------------------
       NWT REQUIRED            4 OUTER ITERATIONS 
       AND A TOTAL OF          7 INNER ITERATIONS.
    ------------------------------------------------

 NO OUTPUT CONTROL FOR STRESS PERIOD   22   TIME STEP    9
 
 SOLVING FOR HEAD 
                                                   Max.-Head-Change                         Max.-Flux-Residual
  Residual-Control   Outer-Iter.   Inner-Iter.     Column Row Layer    Maximum-Head-Change  Column Row Layer    Maximum-Flux-Residual          L2-NORM 
          0                 1           2             5    6     1       0.5021955701E-01       5    8    1         0.2719122408E+01      0.6832778475E+01
          0                 2           2             5    6     1      -0.4884957123E-02       5    8    1        -0.2719098310E+00      0.6832239926E+00
          0                 3           2             5    6     1       0.3326478274E-03       5    8    1         0.1903371930E-01      0.4782149602E-01
          0                 4           1             5    6     1      -0.1323633546E-04       5    8    1        -0.7784800885E-03      0.1955693607E-02

    ------------------------------------------------
       NWT REQUIRED            4 OUTER ITERATIONS 
       AND A TOTAL OF          7 INNER ITERATIONS.
    ------------------------------------------------

 NO OUTPUT CONTROL FOR STRESS PERIOD   22   TIME STEP   10
 
 SOLVING FOR HEAD 
                                                   Max.-Head-Change                         Max.-Flux-Residual
  Residual-Control   Outer-Iter.   Inner-Iter.     Column Row Layer    Maximum-Head-Change  Column Row Layer    Maximum-Flux-Residual          L2-NORM 
          0                 1           2             5    6     1       0.4829289012E-01       5    6    1         0.2610016769E+01      0.6627666565E+01
          0                 2           2             5    6     1      -0.1431739538E-01       5    6    1        -0.7899139080E+00      0.1923889829E+01
          0                 3           2             4    7     1       0.1007720476E-01       5    6    1         0.5587358990E+00      0.1366333366E+01
          0                 4           2             4    7     1      -0.1203758851E-03       5    6    1        -0.6936804023E-02      0.1709895017E-01
          0                 5           2             4    7     1      -0.4888359066E-03       4    7    1        -0.2772197028E-01      0.6847168003E-01
          0                 6           2             4    7     1       0.4453830958E-03       4    7    1         0.2595965075E-01      0.6364406469E-01
          0                 7           2             4    7     1      -0.9452692973E-03       4    7    1        -0.5662230477E-01      0.1396399844E+00
          0                 8           2             4    7     1       0.8220671995E-03       4    7    1         0.5060216593E-01      0.1239998543E+00
          0                 9           2             4    7     1       0.1139521514E-03       5    8    1         0.7014798346E-02      0.1741585411E-01
          0                10           1             4    7     1      -0.4457127766E-04       4    7    1        -0.2819060288E-02      0.7800344852E-02

    ------------------------------------------------
       NWT REQUIRED           10 OUTER ITERATIONS 
       AND A TOTAL OF         19 INNER ITERATIONS.
    ------------------------------------------------

 NO OUTPUT CONTROL FOR STRESS PERIOD   22   TIME STEP   11
 
 SOLVING FOR HEAD 
                                                   Max.-Head-Change                         Max.-Flux-Residual
  Residual-Control   Outer-Iter.   Inner-Iter.     Column Row Layer    Maximum-Head-Change  Column Row Layer    Maximum-Flux-Residual          L2-NORM 
          0                 1           2             5    6     1       0.4648286920E-01       5    6    1         0.2510321675E+01      0.6434977688E+01
          0                 2           2             5    7     1      -0.2552147115E-01       5    6    1        -0.1395658406E+01      0.3413735867E+01
          0                 3           2             4    7     1      -0.4737049944E-01       4    7    1        -0.2542481817E+01      0.6231178537E+01
          0                 4           2             4    7     1       0.2587325421E-01       4    7    1         0.1427490929E+01      0.3496497008E+01
          0                 5           2             4    7     1      -0.1029769031E-02       5    8    1        -0.5841217740E-01      0.1430751619E+00
          0                 6           1             4    7     1       0.1270691904E-04       5    8    1         0.7410346923E-03      0.1815169420E-02

    ------------------------------------------------
       NWT REQUIRED            6 OUTER ITERATIONS 
       AND A TOTAL OF         11 INNER ITERATIONS.
    ------------------------------------------------

 NO OUTPUT CONTROL FOR STRESS PERIOD   22   TIME STEP   12
 
 SOLVING FOR HEAD 
                                                   Max.-Head-Change                         Max.-Flux-Residual
  Residual-Control   Outer-Iter.   Inner-Iter.     Column Row Layer    Maximum-Head-Change  Column Row Layer    Maximum-Flux-Residual          L2-NORM 
          0                 1           2             5    6     1       0.4606721238E-01       5    6    1         0.2487327108E+01      0.6392592241E+01
          0                 2           2             5    6     1      -0.4481053189E-02       5    6    1        -0.2487306042E+00      0.6392321246E+00
          0                 3           2             5    6     1       0.3051434090E-03       5    6    1         0.1741116986E-01      0.4474216764E-01
          0                 4           1             5    6     1      -0.1214191038E-04       5    6    1        -0.7121177418E-03      0.1829728834E-02

    ------------------------------------------------
       NWT REQUIRED            4 OUTER ITERATIONS 
       AND A TOTAL OF          7 INNER ITERATIONS.
    ------------------------------------------------

 NO OUTPUT CONTROL FOR STRESS PERIOD   22   TIME STEP   13
 
 SOLVING FOR HEAD 
                                                   Max.-Head-Change                         Max.-Flux-Residual
  Residual-Control   Outer-Iter.   Inner-Iter.     Column Row Layer    Maximum-Head-Change  Column Row Layer    Maximum-Flux-Residual          L2-NORM 
          0                 1           2             5    6     1       0.4437539694E-01       5    6    1         0.2394218446E+01      0.6211314246E+01
          0                 2           2             5    6     1      -0.4681963636E-02       5    6    1        -0.2595142979E+00      0.6667119527E+00
          0                 3           2             4    7     1      -0.7375130719E-02       4    7    1        -0.3958408925E+00      0.9727481620E+00
          0                 4           2             4    7     1      -0.2476598174E-02       5    6    1        -0.1330067318E+00      0.3533711011E+00
          0                 5           2             4    7     1       0.1063658392E-01       5    6    1         0.5868464224E+00      0.1437478236E+01
          0                 6           2             4    7     1      -0.1528568377E+00       5    8    1        -0.8668458030E+01      0.2123564465E+02
          0                 7           2             4    7     1       0.2495114519E-01       5    8    1         0.1454400885E+01      0.3562430759E+01
          0                 8           2             4    7     1       0.3665029223E-03       4    7    1         0.2136046638E-01      0.5231872076E-01
          0                 9           1             4    7     1       0.5379888145E-05       4    7    1         0.3134964013E-03      0.7700336015E-03

    ------------------------------------------------
       NWT REQUIRED            9 OUTER ITERATIONS 
       AND A TOTAL OF         17 INNER ITERATIONS.
    ------------------------------------------------

 NO OUTPUT CONTROL FOR STRESS PERIOD   22   TIME STEP   14
 
 SOLVING FOR HEAD 
                                                   Max.-Head-Change                         Max.-Flux-Residual
  Residual-Control   Outer-Iter.   Inner-Iter.     Column Row Layer    Maximum-Head-Change  Column Row Layer    Maximum-Flux-Residual          L2-NORM 
          0                 1           2             5    6     1       0.4653505607E-01       5    6    1         0.2512825988E+01      0.6441199851E+01
          0                 2           2             5    6     1      -0.4526561487E-02       5    6    1        -0.2512804825E+00      0.6440946061E+00
          0                 3           2             5    6     1       0.3082423566E-03       5    6    1         0.1758966151E-01      0.4508275299E-01
          0                 4           1             5    6     1      -0.1226522045E-04       5    6    1        -0.7194180532E-03      0.1843648542E-02

    ------------------------------------------------
       NWT REQUIRED            4 OUTER ITERATIONS 
       AND A TOTAL OF          7 INNER ITERATIONS.
    ------------------------------------------------

 NO OUTPUT CONTROL FOR STRESS PERIOD   22   TIME STEP   15
 
 SOLVING FOR HEAD 
                                                   Max.-Head-Change                         Max.-Flux-Residual
  Residual-Control   Outer-Iter.   Inner-Iter.     Column Row Layer    Maximum-Head-Change  Column Row Layer    Maximum-Flux-Residual          L2-NORM 
          0                 1           2             5    6     1       0.4482205664E-01       5    6    1         0.2418524787E+01      0.6258657980E+01
          0                 2           2             5    6     1      -0.4359935615E-02       5    6    1        -0.2418505184E+00      0.6258236051E+00
          0                 3           2             5    6     1       0.2968957305E-03       5    6    1         0.1692956226E-01      0.4380424529E-01
          0                 4           1             5    6     1      -0.1181372880E-04       5    6    1        -0.6924199874E-03      0.1791343834E-02

    ------------------------------------------------
       NWT REQUIRED            4 OUTER ITERATIONS 
       AND A TOTAL OF          7 INNER ITERATIONS.
    ------------------------------------------------

 NO OUTPUT CONTROL FOR STRESS PERIOD   22   TIME STEP   16
 
 SOLVING FOR HEAD 
                                                   Max.-Head-Change                         Max.-Flux-Residual
  Residual-Control   Outer-Iter.   Inner-Iter.     Column Row Layer    Maximum-Head-Change  Column Row Layer    Maximum-Flux-Residual          L2-NORM 
          0                 1           2             5    7     1       0.4361952521E-01       5    6    1         0.2329501213E+01      0.6085606801E+01
          0                 2           2             5    7     1      -0.4242978728E-02       5    6    1        -0.2329483045E+00      0.6085237010E+00
          0                 3           2             5    7     1       0.2889312374E-03       5    6    1         0.1630640566E-01      0.4259369975E-01
          0                 4           1             5    7     1      -0.1149684791E-04       5    6    1        -0.6669328320E-03      0.1741888116E-02

    ------------------------------------------------
       NWT REQUIRED            4 OUTER ITERATIONS 
       AND A TOTAL OF          7 INNER ITERATIONS.
    ------------------------------------------------

 NO OUTPUT CONTROL FOR STRESS PERIOD   22   TIME STEP   17
 
 SOLVING FOR HEAD 
                                                   Max.-Head-Change                         Max.-Flux-Residual
  Residual-Control   Outer-Iter.   Inner-Iter.     Column Row Layer    Maximum-Head-Change  Column Row Layer    Maximum-Flux-Residual          L2-NORM 
          0                 1           2             5    7     1       0.4274385464E-01       5    7    1         0.2266986762E+01      0.5921326253E+01
          0                 2           2             4    7     1      -0.1381847199E-01       5    7    1        -0.7487674191E+00      0.1844898134E+01
          0                 3           2             4    7     1       0.1000001648E-01       5    7    1         0.5522249590E+00      0.1352298760E+01
          0                 4           2             4    7     1      -0.2445680810E-01       5    7    1        -0.1386978876E+01      0.3412935553E+01
          0                 5           2             4    7     1       0.2409181499E-01       4    7    1         0.1404225892E+01      0.3439621848E+01
          0                 6           2             4    7     1       0.3543502524E-03       5    8    1         0.2067198126E-01      0.5063979269E-01
          0                 7           1             4    7     1       0.5207967901E-05       5    8    1         0.3038178270E-03      0.7442870383E-03

    ------------------------------------------------
       NWT REQUIRED            7 OUTER ITERATIONS 
       AND A TOTAL OF         13 INNER ITERATIONS.
    ------------------------------------------------

 NO OUTPUT CONTROL FOR STRESS PERIOD   22   TIME STEP   18
 
 SOLVING FOR HEAD 
                                                   Max.-Head-Change                         Max.-Flux-Residual
  Residual-Control   Outer-Iter.   Inner-Iter.     Column Row Layer    Maximum-Head-Change  Column Row Layer    Maximum-Flux-Residual          L2-NORM 
          0                 1           2             5    7     1       0.4188388356E-01       5    7    1         0.2221476937E+01      0.5766674659E+01
          0                 2           2             5    7     1      -0.4074153334E-02       5    7    1        -0.2221472769E+00      0.5766496916E+00
          0                 3           2             4    7     1      -0.1227882068E-01       5    8    1        -0.6592721783E+00      0.1621932209E+01
          0                 4           2             4    7     1       0.1243915956E-01       5    8    1         0.6863253781E+00      0.1681310968E+01
          0                 5           1             4    7     1      -0.8344710360E-04       5    8    1        -0.4742458553E-02      0.1200367474E-01

    ------------------------------------------------
       NWT REQUIRED            5 OUTER ITERATIONS 
       AND A TOTAL OF          9 INNER ITERATIONS.
    ------------------------------------------------

 NO OUTPUT CONTROL FOR STRESS PERIOD   22   TIME STEP   19
 
 SOLVING FOR HEAD 
                                                   Max.-Head-Change                         Max.-Flux-Residual
  Residual-Control   Outer-Iter.   Inner-Iter.     Column Row Layer    Maximum-Head-Change  Column Row Layer    Maximum-Flux-Residual          L2-NORM 
          0                 1           2             4    7     1       0.4148556606E-01       5    7    1         0.2176933781E+01      0.5618928505E+01
          0                 2           2             4    7     1      -0.2547584733E-01       5    7    1        -0.1368449095E+01      0.3358576779E+01
          0                 3           2             4    7     1      -0.4157327519E-01       5    8    1        -0.2231987463E+01      0.5473744978E+01
          0                 4           2             4    7     1       0.2534139959E-01       5    8    1         0.1398221373E+01      0.3424880783E+01
          0                 5           2             4    7     1      -0.1008600857E-02       5    8    1        -0.5721887019E-01      0.1401446598E+00
          0                 6           1             4    7     1       0.1244571304E-04       5    8    1         0.7258964026E-03      0.1777988542E-02

    ------------------------------------------------
       NWT REQUIRED            6 OUTER ITERATIONS 
       AND A TOTAL OF         11 INNER ITERATIONS.
    ------------------------------------------------

 NO OUTPUT CONTROL FOR STRESS PERIOD   22   TIME STEP   20
 
 SOLVING FOR HEAD 
                                                   Max.-Head-Change                         Max.-Flux-Residual
  Residual-Control   Outer-Iter.   Inner-Iter.     Column Row Layer    Maximum-Head-Change  Column Row Layer    Maximum-Flux-Residual          L2-NORM 
          0                 1           2             4    7     1       0.4138902029E-01       4    7    1         0.2166231102E+01      0.5595480393E+01
          0                 2           2             4    7     1      -0.4026025623E-02       4    7    1        -0.2166233138E+00      0.5595284023E+00
          0                 3           2             4    7     1       0.2741573963E-03       4    7    1         0.1516363668E-01      0.3916354420E-01
          0                 4           1             4    7     1      -0.1090897909E-04       4    7    1        -0.6201936174E-03      0.1601556104E-02

    ------------------------------------------------
       NWT REQUIRED            4 OUTER ITERATIONS 
       AND A TOTAL OF          7 INNER ITERATIONS.
    ------------------------------------------------

 NO OUTPUT CONTROL FOR STRESS PERIOD   22   TIME STEP   21
 
 SOLVING FOR HEAD 
                                                   Max.-Head-Change                         Max.-Flux-Residual
  Residual-Control   Outer-Iter.   Inner-Iter.     Column Row Layer    Maximum-Head-Change  Column Row Layer    Maximum-Flux-Residual          L2-NORM 
          0                 1           2             4    7     1       0.4106575515E-01       4    7    1         0.2150513225E+01      0.5454644579E+01
          0                 2           2             4    7     1      -0.1036115159E-01       4    7    1        -0.5567597246E+00      0.1362418821E+01
          0                 3           2             4    7     1       0.6190948739E-02       4    7    1         0.3416172965E+00      0.8356033094E+00
          0                 4           2             4    7     1       0.2124576153E-03       5    8    1         0.1176791049E-01      0.2892832151E-01
          0                 5           2             4    7     1      -0.6337613126E-03       5    8    1        -0.3594231917E-01      0.8876433860E-01
          0                 6           2             4    7     1      -0.7752564524E-02       5    8    1        -0.4396445489E+00      0.1082972283E+01
          0                 7           2             4    7     1       0.8179961607E-02       4    7    1         0.4767727308E+00      0.1167847251E+01
          0                 8           2             4    7     1       0.1793957884E-03       5    8    1         0.1046225786E-01      0.2586151936E-01
          0                 9           1             4   13     1      -0.3173972132E-04       4   13    1        -0.1973418946E-02      0.3903480660E-02

    ------------------------------------------------
       NWT REQUIRED            9 OUTER ITERATIONS 
       AND A TOTAL OF         17 INNER ITERATIONS.
    ------------------------------------------------

 NO OUTPUT CONTROL FOR STRESS PERIOD   22   TIME STEP   22
 
 SOLVING FOR HEAD 
                                                   Max.-Head-Change                         Max.-Flux-Residual
  Residual-Control   Outer-Iter.   Inner-Iter.     Column Row Layer    Maximum-Head-Change  Column Row Layer    Maximum-Flux-Residual          L2-NORM 
          0                 1           2             4    7     1       0.4072541148E-01       4    7    1         0.2133797490E+01      0.5321818867E+01
          0                 2           2             4    7     1      -0.2223434488E-01       4    7    1        -0.1194126306E+01      0.2914603276E+01
          0                 3           2             4    7     1      -0.1718304986E+01       5    8    1        -0.9222586491E+02      0.2259048281E+03
          0                 4           2             4    7     1       0.1425486131E+00       5    8    1         0.7866185023E+01      0.1926665436E+02
          0                 5           2             4    7     1      -0.5673605620E-02       5    8    1        -0.3218778814E+00      0.7883560321E+00
          0                 6           1             4    7     1       0.7000976486E-04       5    8    1         0.4083054777E-02      0.1000061136E-01

    ------------------------------------------------
       NWT REQUIRED            6 OUTER ITERATIONS 
       AND A TOTAL OF         11 INNER ITERATIONS.
    ------------------------------------------------

 NO OUTPUT CONTROL FOR STRESS PERIOD   22   TIME STEP   23
 
 SOLVING FOR HEAD 
                                                   Max.-Head-Change                         Max.-Flux-Residual
  Residual-Control   Outer-Iter.   Inner-Iter.     Column Row Layer    Maximum-Head-Change  Column Row Layer    Maximum-Flux-Residual          L2-NORM 
          0                 1           2             5    8     1       0.8422226437E-01       5    8    1         0.4598390837E+01      0.1042704480E+02
          0                 2           2             5    8     1      -0.8192440072E-02       5    8    1        -0.4598328408E+00      0.1042672210E+01
          0                 3           2             5    8     1       0.5578756761E-03       5    8    1         0.3218837194E-01      0.7298554326E-01
          0                 4           1             5    8     1      -0.2219839147E-04       5    8    1        -0.1316505978E-02      0.2985000488E-02

    ------------------------------------------------
       NWT REQUIRED            4 OUTER ITERATIONS 
       AND A TOTAL OF          7 INNER ITERATIONS.
    ------------------------------------------------

 NO OUTPUT CONTROL FOR STRESS PERIOD   22   TIME STEP   24
 
 SOLVING FOR HEAD 
                                                   Max.-Head-Change                         Max.-Flux-Residual
  Residual-Control   Outer-Iter.   Inner-Iter.     Column Row Layer    Maximum-Head-Change  Column Row Layer    Maximum-Flux-Residual          L2-NORM 
          0                 1           2             5    8     1       0.8024310321E-01       5    8    1         0.4376705731E+01      0.1004755364E+02
          0                 2           2             5    8     1      -0.7805384848E-02       5    8    1        -0.4376649359E+00      0.1004716901E+01
          0                 3           2             5    8     1       0.5315185660E-03       5    8    1         0.3063661220E-01      0.7032880430E-01
          0                 4           1             5    8     1      -0.2114961794E-04       5    8    1        -0.1253038957E-02      0.2876366898E-02

    ------------------------------------------------
       NWT REQUIRED            4 OUTER ITERATIONS 
       AND A TOTAL OF          7 INNER ITERATIONS.
    ------------------------------------------------

 NO OUTPUT CONTROL FOR STRESS PERIOD   22   TIME STEP   25
 
 SOLVING FOR HEAD 
                                                   Max.-Head-Change                         Max.-Flux-Residual
  Residual-Control   Outer-Iter.   Inner-Iter.     Column Row Layer    Maximum-Head-Change  Column Row Layer    Maximum-Flux-Residual          L2-NORM 
          0                 1           2             5    8     1       0.7652873217E-01       5    8    1         0.4169935138E+01      0.9692131389E+01
          0                 2           2             5    8     1      -0.7444085343E-02       5    8    1        -0.4169884019E+00      0.9691791306E+00
          0                 3           2             5    8     1       0.5069153350E-03       5    8    1         0.2918924920E-01      0.6784131050E-01
          0                 4           1             5    8     1      -0.2017063212E-04       5    8    1        -0.1193841733E-02      0.2774624082E-02

    ------------------------------------------------
       NWT REQUIRED            4 OUTER ITERATIONS 
       AND A TOTAL OF          7 INNER ITERATIONS.
    ------------------------------------------------

 NO OUTPUT CONTROL FOR STRESS PERIOD   22   TIME STEP   26
 
 SOLVING FOR HEAD 
                                                   Max.-Head-Change                         Max.-Flux-Residual
  Residual-Control   Outer-Iter.   Inner-Iter.     Column Row Layer    Maximum-Head-Change  Column Row Layer    Maximum-Flux-Residual          L2-NORM 
          0                 1           2             5    8     1       0.7305839074E-01       5    8    1         0.3976901423E+01      0.9358805055E+01
          0                 2           2             5    8     1      -0.1259745655E-01       5    8    1        -0.7000508399E+00      0.1631964976E+01
          0                 3           2             5    7     1       0.5848807363E-02       5    8    1         0.3313638134E+00      0.8023166552E+00
          0                 4           2             4    7     1      -0.1332133619E-01       5    8    1        -0.7558334092E+00      0.1859658639E+01
          0                 5           2             4    7     1       0.1292370393E-01       4    7    1         0.7532641437E+00      0.1845110994E+01
          0                 6           2             4    7     1       0.1970330140E-03       5    8    1         0.1149396823E-01      0.2847661655E-01
          0                 7           1             4   13     1      -0.3912984680E-04       4   13    1        -0.2432646994E-02      0.4428259825E-02

    ------------------------------------------------
       NWT REQUIRED            7 OUTER ITERATIONS 
       AND A TOTAL OF         13 INNER ITERATIONS.
    ------------------------------------------------

 NO OUTPUT CONTROL FOR STRESS PERIOD   22   TIME STEP   27
 
 SOLVING FOR HEAD 
                                                   Max.-Head-Change                         Max.-Flux-Residual
  Residual-Control   Outer-Iter.   Inner-Iter.     Column Row Layer    Maximum-Head-Change  Column Row Layer    Maximum-Flux-Residual          L2-NORM 
          0                 1           2             5    8     1       0.6982374097E-01       5    8    1         0.3797120705E+01      0.9047273127E+01
          0                 2           2             5    8     1      -0.2768445094E-01       5    8    1        -0.1530183067E+01      0.3660378005E+01
          0                 3           2             4    7     1      -0.1041965734E+01       4    7    1        -0.5592324197E+02      0.1369720102E+03
          0                 4           2             4    7     1       0.9339762585E-01       5    8    1         0.5153098336E+01      0.1262228344E+02
          0                 5           2             4    7     1      -0.3717310874E-02       5    8    1        -0.2108614366E+00      0.5164802924E+00
          0                 6           1             4    7     1       0.4587000215E-04       5    8    1         0.2674825708E-02      0.6551834071E-02

    ------------------------------------------------
       NWT REQUIRED            6 OUTER ITERATIONS 
       AND A TOTAL OF         11 INNER ITERATIONS.
    ------------------------------------------------

 NO OUTPUT CONTROL FOR STRESS PERIOD   22   TIME STEP   28
 
 SOLVING FOR HEAD 
                                                   Max.-Head-Change                         Max.-Flux-Residual
  Residual-Control   Outer-Iter.   Inner-Iter.     Column Row Layer    Maximum-Head-Change  Column Row Layer    Maximum-Flux-Residual          L2-NORM 
          0                 1           2             5    8     1       0.9703188980E-01       5    8    1         0.5297704149E+01      0.1206542062E+02
          0                 2           2             5    8     1      -0.9438434560E-02       5    8    1        -0.5297618974E+00      0.1206504108E+01
          0                 3           2             5    8     1       0.6298644309E-03       5    8    1         0.3635553029E-01      0.8291414152E-01
          0                 4           1             5    8     1      -0.3110680735E-04       5    8    1        -0.1838594451E-02      0.4165346758E-02

    ------------------------------------------------
       NWT REQUIRED            4 OUTER ITERATIONS 
       AND A TOTAL OF          7 INNER ITERATIONS.
    ------------------------------------------------

 NO OUTPUT CONTROL FOR STRESS PERIOD   22   TIME STEP   29
 
 SOLVING FOR HEAD 
                                                   Max.-Head-Change                         Max.-Flux-Residual
  Residual-Control   Outer-Iter.   Inner-Iter.     Column Row Layer    Maximum-Head-Change  Column Row Layer    Maximum-Flux-Residual          L2-NORM 
          0                 1           2             5    8     1       0.9244697918E-01       5    8    1         0.5042395544E+01      0.1162395254E+02
          0                 2           2             5    8     1      -0.8992459340E-02       5    8    1        -0.5042318453E+00      0.1162359590E+01
          0                 3           2             5    8     1       0.6123542293E-03       5    8    1         0.3529631745E-01      0.8136455720E-01
          0                 4           1             5    8     1      -0.2436614299E-04       5    8    1        -0.1443621054E-02      0.3327754624E-02

    ------------------------------------------------
       NWT REQUIRED            4 OUTER ITERATIONS 
       AND A TOTAL OF          7 INNER ITERATIONS.
    ------------------------------------------------

 NO OUTPUT CONTROL FOR STRESS PERIOD   22   TIME STEP   30



 STREAM LISTING     PERIOD     22   STEP       30

 LAYER ROW COL. STREAM  RCH.  FLOW INTO     FLOW TO   FLOW OUT OF   OVRLND.     DIRECT     STREAM       STREAM     STREAM     STREAM   STREAMBED  STREAMBED
                SEG.NO.  NO.  STRM. RCH.    AQUIFER    STRM. RCH.    RUNOFF     PRECIP       ET          HEAD       DEPTH      WIDTH   CONDCTNC.   GRADIENT

   1    1    1     1     1    1.8324E+01  2.0985E-01   1.8114E+01  0.000E+00  0.000E+00  0.000E+00  1.09412E+03  1.071E+00  1.146E+01  5.155E-02  1.357E+00
   1    2    2     1     2    1.8114E+01  3.2368E-01   1.7790E+01  0.000E+00  0.000E+00  0.000E+00  1.08912E+03  1.066E+00  1.137E+01  7.960E-02  1.355E+00
   1    3    3     1     3    1.7790E+01  2.7478E-01   1.7515E+01  0.000E+00  0.000E+00  0.000E+00  1.08348E+03  1.061E+00  1.128E+01  6.766E-02  1.354E+00
   1    3    4     1     4    1.7515E+01  2.5199E-01   1.7263E+01  0.000E+00  0.000E+00  0.000E+00  1.07846E+03  1.056E+00  1.119E+01  6.212E-02  1.352E+00
   1    4    5     2     1    1.5263E+01  3.0363E-01   1.4960E+01  0.000E+00  0.000E+00  0.000E+00  1.07283E+03  8.927E-01  1.200E+01  7.800E-02  1.298E+00
   1    5    6     2     2    1.4960E+01  2.3299E-01   1.4727E+01  0.000E+00  0.000E+00  0.000E+00  1.06739E+03  8.832E-01  1.200E+01  6.000E-02  1.294E+00
   1    6    6     2     3    1.4727E+01  2.3249E-01   1.4494E+01  0.000E+00  0.000E+00  0.000E+00  1.06267E+03  8.749E-01  1.200E+01  6.000E-02  1.292E+00
   1    7    6     2     4    1.4494E+01  2.3199E-01   1.4262E+01  0.000E+00  0.000E+00  0.000E+00  1.05794E+03  8.665E-01  1.200E+01  6.000E-02  1.289E+00
   1    8    6     2     5    1.4262E+01  2.3149E-01   1.4031E+01  0.000E+00  0.000E+00  0.000E+00  1.05322E+03  8.581E-01  1.200E+01  6.000E-02  1.286E+00
   1    3    5     3     1    2.0000E+00  2.8252E-01   1.7175E+00  0.000E+00  0.000E+00  0.000E+00  1.07555E+03  1.909E+00  9.636E+00  7.227E-02  1.955E+00
   1    3    6     3     2    1.7175E+00  2.4905E-01   1.4684E+00  0.000E+00  0.000E+00  0.000E+00  1.07264E+03  1.727E+00  8.909E+00  6.682E-02  1.864E+00
   1    3    7     3     3    1.4684E+00  1.9718E-01   1.2712E+00  0.000E+00  0.000E+00  0.000E+00  1.06987E+03  1.555E+00  8.218E+00  5.547E-02  1.777E+00
   1    4    8     3     4    1.2712E+00  2.2567E-01   1.0456E+00  0.000E+00  0.000E+00  0.000E+00  1.06682E+03  1.364E+00  7.455E+00  6.709E-02  1.682E+00
   1    5    8     3     5    1.0456E+00  1.5790E-01   8.8768E-01  0.000E+00  0.000E+00  0.000E+00  1.06362E+03  1.164E+00  6.655E+00  4.991E-02  1.582E+00
   1    6    8     3     6    8.8768E-01  5.5980E-02   8.3170E-01  0.000E+00  0.000E+00  0.000E+00  1.06158E+03  1.036E+00  6.145E+00  1.844E-02  1.518E+00
   1    5   10     4     1    1.0000E+01  9.0919E-02   9.9091E+00  0.000E+00  0.000E+00  0.000E+00  1.07836E+03  6.368E-01  1.000E+01  2.500E-02  1.212E+00
   1    5    9     4     2    9.9091E+00  1.8158E-01   9.7275E+00  0.000E+00  0.000E+00  0.000E+00  1.07154E+03  6.315E-01  1.000E+01  5.000E-02  1.211E+00
   1    6    8     4     3    9.7275E+00  1.2689E-01   9.6006E+00  0.000E+00  0.000E+00  0.000E+00  1.06381E+03  6.256E-01  1.000E+01  3.500E-02  1.209E+00
   1    6    8     5     1    1.0432E+01  2.2686E-01   1.0205E+01  0.000E+00  0.000E+00  0.000E+00  1.05868E+03  6.790E-01  1.542E+01  6.166E-02  1.226E+00
   1    7    7     5     2    1.0205E+01  2.7894E-01   9.9265E+00  0.000E+00  0.000E+00  0.000E+00  1.05417E+03  6.732E-01  1.519E+01  7.594E-02  1.224E+00
   1    8    7     5     3    9.9265E+00  1.9221E-01   9.7343E+00  0.000E+00  0.000E+00  0.000E+00  1.04992E+03  6.676E-01  1.497E+01  5.241E-02  1.223E+00
   1    8    6     5     4    9.7343E+00  1.3577E-01   9.5985E+00  0.000E+00  0.000E+00  0.000E+00  1.04691E+03  6.637E-01  1.482E+01  3.706E-02  1.221E+00
   1    9    6     6     1    2.3622E+01  2.5059E-01   2.3372E+01  0.000E+00  0.000E+00  0.000E+00  1.04390E+03  1.176E+00  1.200E+01  6.000E-02  1.392E+00
   1   10    7     6     2    2.3372E+01  2.5014E-01   2.3121E+01  0.000E+00  0.000E+00  0.000E+00  1.03935E+03  1.169E+00  1.200E+01  6.000E-02  1.390E+00
   1   11    7     6     3    2.3121E+01  2.4968E-01   2.2872E+01  0.000E+00  0.000E+00  0.000E+00  1.03480E+03  1.161E+00  1.200E+01  6.000E-02  1.387E+00
   1   12    7     6     4    2.2872E+01  2.4923E-01   2.2622E+01  0.000E+00  0.000E+00  0.000E+00  1.03024E+03  1.154E+00  1.200E+01  6.000E-02  1.385E+00
   1   13    7     6     5    2.2622E+01 -9.8414E-04   2.2623E+01  0.000E+00  0.000E+00  0.000E+00  1.02706E+03  1.150E+00  1.200E+01  2.400E-01 -1.367E-03
   1   14    9     7     1    1.5000E+02  1.3373E+00   1.4866E+02  0.000E+00  0.000E+00  0.000E+00  1.03987E+03  2.288E+00  5.529E+01  5.593E-01  7.970E-01
   1   13    8     7     2    1.4866E+02  1.8348E+00   1.4683E+02  0.000E+00  0.000E+00  0.000E+00  1.03478E+03  2.279E+00  5.526E+01  6.148E-01  9.948E-01
   1   13    7     7     3    1.4683E+02  1.4668E+00   1.4536E+02  0.000E+00  0.000E+00  0.000E+00  1.02969E+03  2.270E+00  5.522E+01  5.585E-01  8.755E-01
   1   13    6     8     1    1.6798E+02  8.9752E-01   1.6709E+02  0.000E+00  0.000E+00  0.000E+00  1.02481E+03  2.936E+00  4.257E+01  4.338E-01  6.896E-01
   1   13    5     8     2    1.6709E+02  1.5056E-01   1.6694E+02  0.000E+00  0.000E+00  0.000E+00  1.01856E+03  2.933E+00  4.252E+01  4.333E-01  1.158E-01
   1   13    4     8     3    1.6694E+02 -2.4636E+00   1.6940E+02  0.000E+00  0.000E+00  0.000E+00  1.01232E+03  2.940E+00  4.263E+01  4.344E+00 -1.890E-01
   1   13    3     8     4    1.6940E+02 -3.6094E+00   1.7301E+02  0.000E+00  0.000E+00  0.000E+00  1.00609E+03  2.960E+00  4.292E+01  4.374E+00 -2.751E-01
   1   13    2     8     5    1.7301E+02 -2.4766E+00   1.7549E+02  0.000E+00  0.000E+00  0.000E+00  9.99855E+02  2.980E+00  4.320E+01  4.403E+00 -1.875E-01
   1   13    1     8     6    1.7549E+02 -1.9057E+00   1.7739E+02  0.000E+00  0.000E+00  0.000E+00  9.94869E+02  2.994E+00  4.341E+01  2.654E+00 -2.393E-01
   1    8    6     9     1    7.0679E-03  0.0000E+00   7.0679E-03  0.000E+00  0.000E+00  0.000E+00  1.07878E+03  2.916E-02  4.000E+00  0.000E+00  1.010E+00
   1    8    5     9     2    7.0679E-03  0.0000E+00   7.0679E-03  0.000E+00  0.000E+00  0.000E+00  1.07828E+03  2.916E-02  4.000E+00  0.000E+00  1.010E+00





UNSATURATED ZONE PACKAGE VOLUMETRIC BUDGET FOR  TIME STEP    30 STRESS PERIOD   22
  ------------------------------------------------------------------------------



     CUMULATIVE VOLUMES      L**3       RATES FOR THIS TIME STEP      L**3/T
     ------------------                 ------------------------

           IN:                                      IN:
           ---                                      ---
        INFILTRATION =  1023127127.5062          INFILTRATION =           0.8546

          OUT:                                     OUT:
          ----                                     ----
              UZF ET =   853867745.6747                UZF ET =          12.0675
        UZF RECHARGE =       73224.0000          UZF RECHARGE =       0.0000E+00

            IN - OUT =   169186157.8315              IN - OUT =         -11.2129

          STORAGE:                                 STORAGE:
          --------                                 --------
      STORAGE CHANGE =   169306360.5045        STORAGE CHANGE =         -11.1066

 PERCENT DISCREPANCY IS DIFFERENCE BETWEEN IN-OUT MINUS CHANGE IN STORAGE
 DIVIDED BY THE AVERAGE OF IN AND OUT TIMES 100

 PERCENT DISCREPANCY =          -0.00     PERCENT DISCREPANCY =          -0.88






1
  VOLUMETRIC BUDGET FOR AGRICULTURAL FIELDS AT  END OF TIME STEP   30, STRESS PERIOD  22
  ------------------------------------------------------------------------------

     CUMULATIVE VOLUMES      L**3       RATES FOR THIS TIME STEP      L**3/T
     ------------------                 ------------------------

           IN:                                      IN:
           ---                                      ---
           AG WELLS      =   363470336.0000             AG WELLS      =       6.3796E-08
      DIVERSION SEGMENTS =   612812416.0000        DIVERSION SEGMENTS =       7.0679E-03
           GW IRRIGATION =           0.0000             GW IRRIGATION =           0.0000
           SW IRRIGATION =           0.0000             SW IRRIGATION =           0.0000
        SYSTEM LOSSES GW =           0.0000          SYSTEM LOSSES GW =           0.0000
        SYSTEM LOSSES SW =           0.0000          SYSTEM LOSSES SW =           0.0000

                TOTAL IN =   976282752.0000                  TOTAL IN =       7.0679E-03

          OUT:                                     OUT:
          ----                                     ----
           AG WELLS      =           0.0000             AG WELLS      =           0.0000
      DIVERSION SEGMENTS =           0.0000        DIVERSION SEGMENTS =           0.0000
           GW IRRIGATION =   363470336.0000             GW IRRIGATION =       6.3796E-08
           SW IRRIGATION =   612825280.0000             SW IRRIGATION =       7.0680E-03
        SYSTEM LOSSES GW =           0.0000          SYSTEM LOSSES GW =           0.0000
        SYSTEM LOSSES SW =           0.0000          SYSTEM LOSSES SW =           0.0000

               TOTAL OUT =   976295616.0000                 TOTAL OUT =       7.0681E-03

                IN - OUT =      -12864.0000                  IN - OUT =      -1.4063E-07

     PERCENT DISCREPANCY =          -0.00         PERCENT DISCREPANCY =          -0.00



1
  VOLUMETRIC BUDGET FOR ENTIRE MODEL AT END OF TIME STEP   30, STRESS PERIOD  22
  ------------------------------------------------------------------------------

     CUMULATIVE VOLUMES      L**3       RATES FOR THIS TIME STEP      L**3/T
     ------------------                 ------------------------

           IN:                                      IN:
           ---                                      ---
             STORAGE     =   488165984.0000               STORAGE     =          23.8243
       CONSTANT HEAD     =           0.0000         CONSTANT HEAD     =           0.0000
     HEAD DEP BOUNDS     =    15807930.0000       HEAD DEP BOUNDS     =           0.2859
      STREAM LEAKAGE     =   661722432.0000        STREAM LEAKAGE     =          11.3811
        UZF RECHARGE     =       73223.9531          UZF RECHARGE     =           0.0000
               GW ET     =           0.0000                 GW ET     =           0.0000
     SURFACE LEAKAGE     =           0.0000       SURFACE LEAKAGE     =           0.0000
           AG WELLS      =           0.0000             AG WELLS      =           0.0000

                TOTAL IN =  1165769600.0000                  TOTAL IN =          35.4912

          OUT:                                     OUT:
          ----                                     ----
             STORAGE     =   184430624.0000               STORAGE     =          24.7466
       CONSTANT HEAD     =           0.0000         CONSTANT HEAD     =           0.0000
     HEAD DEP BOUNDS     =    16086449.0000       HEAD DEP BOUNDS     =           0.2883
      STREAM LEAKAGE     =   599566336.0000        STREAM LEAKAGE     =          10.4563
        UZF RECHARGE     =           0.0000          UZF RECHARGE     =           0.0000
               GW ET     =     2220319.5000                 GW ET     =           0.0000
     SURFACE LEAKAGE     =           0.0000       SURFACE LEAKAGE     =           0.0000
           AG WELLS      =   363470336.0000             AG WELLS      =       6.3796E-08

               TOTAL OUT =  1165774080.0000                 TOTAL OUT =          35.4912

                IN - OUT =       -4480.0000                  IN - OUT =       3.8147E-06

     PERCENT DISCREPANCY =          -0.00         PERCENT DISCREPANCY =           0.00






         TIME SUMMARY AT END OF TIME STEP   30 IN STRESS PERIOD   22
                    SECONDS     MINUTES      HOURS       DAYS        YEARS
                    -----------------------------------------------------------
   TIME STEP LENGTH  87667.      1461.1      24.352      1.0147     2.77799E-03
 STRESS PERIOD TIME 2.63000E+06  43833.      730.56      30.440     8.33397E-02
         TOTAL TIME 5.53166E+07 9.21944E+05  15366.      640.24      1.7529    
1
1
                            STRESS PERIOD NO.   23, LENGTH =   2630000.    
                            -----------------------------------------------

                              NUMBER OF TIME STEPS =    30

                               MULTIPLIER FOR DELT =     1.000

                            INITIAL TIME STEP SIZE =   87666.66    

 REUSING NON-PARAMETER GHB CELLS FROM LAST STRESS PERIOD

      2 GHB CELLS

 REUSING STREAM SEGMENT DATA FROM LAST STRESS PERIOD



            AREAL INFILTRATION RATE
 READING ON UNIT   19 WITH FORMAT: (FREE)              

            1           2           3           4           5           6           7           8           9          10
 ........................................................................................................................
   1   1.0000E-10  2.0000E-10   0.000       0.000       0.000       0.000       0.000       0.000       0.000       0.000    
   2   2.0000E-10  1.0000E-10  2.0000E-10   0.000       0.000      8.0000E-10  8.0000E-10  5.0000E-10   0.000       0.000    
   3    0.000      5.0000E-10  1.0000E-10  1.0000E-10  8.0000E-10  8.0000E-10  5.0000E-10  5.0000E-10   0.000       0.000    
   4   8.0000E-10  5.0000E-10  1.0000E-10  1.0000E-10  1.0000E-10  1.0000E-10  1.0000E-10  1.0000E-10  2.0000E-10   0.000    
   5   8.0000E-10  5.0000E-10  1.0000E-10  1.0000E-10  1.0000E-10  1.0000E-10  1.0000E-10  1.0000E-10  1.0000E-10  1.0000E-10
   6   8.0000E-10  5.0000E-10  5.0000E-10  2.0000E-10  2.0000E-10  1.0000E-10  1.0000E-10  1.0000E-10  1.0000E-10  5.0000E-10
   7   8.0000E-10  5.0000E-10  5.0000E-10  2.0000E-10  2.0000E-10  1.0000E-10  1.0000E-10  2.0000E-10  2.0000E-10   0.000    
   8    0.000      5.0000E-10  5.0000E-10  2.0000E-10  2.0000E-10  1.0000E-10  1.0000E-10  2.0000E-10  5.0000E-10   0.000    
   9    0.000      5.0000E-10  5.0000E-10  2.0000E-10  2.0000E-10  1.0000E-10  1.0000E-10  2.0000E-10  5.0000E-10   0.000    
  10    0.000      5.0000E-10  5.0000E-10  2.0000E-10  2.0000E-10  1.0000E-10  1.0000E-10  2.0000E-10  5.0000E-10  8.0000E-10
  11    0.000      1.0000E-10  1.0000E-10  1.0000E-10  1.0000E-10  1.0000E-10  1.0000E-10  2.0000E-10  5.0000E-10   0.000    
  12   1.0000E-10  1.0000E-10  1.0000E-10  1.0000E-10  1.0000E-10  1.0000E-10  1.0000E-10  1.0000E-10  2.0000E-10   0.000    
  13   1.0000E-10  1.0000E-10  2.0000E-10  2.0000E-10  2.0000E-10  2.0000E-10  2.0000E-10  1.0000E-10  1.0000E-10   0.000    
  14    0.000      2.0000E-10  5.0000E-10  5.0000E-10  5.0000E-10  5.0000E-10  5.0000E-10  2.0000E-10  1.0000E-10   0.000    
  15    0.000       0.000      8.0000E-10  8.0000E-10  8.0000E-10  8.0000E-10   0.000       0.000       0.000       0.000    

                  ET RATE =  5.000000E-09

 USING ET EXTINCTION DEPTH FROM PREVIOUS STRESS PERIOD. CURRENT PERIOD IS:      23

 USING EXTINCTION WATER CONTENT FROM PREVIOUS STRESS PERIOD. CURRENT PERIOD IS:      23

 USING AIR ENTRY PRESSURE FROM PREVIOUS STRESS PERIOD. CURRENT PERIOD IS:      23

 USING ROOT PRESSURE HEAD FROM PREVIOUS STRESS PERIOD. CURRENT PERIOD IS:      23

 USING ROOT ACTIVITY FROM PREVIOUS STRESS PERIOD. CURRENT PERIOD IS:      23

 PROCESSING AG STRESS PERIOD DATA

 READING AG STRESS PERIOD DATA

 READING IRRIGATION SEGMENT

 READING IRRIGATION WELL

 READING SUPPLEMENTAL WELL

 END PROCESSING AG STRESS PERIOD DATA OPTIONS
 
 SOLVING FOR HEAD 
                                                   Max.-Head-Change                         Max.-Flux-Residual
  Residual-Control   Outer-Iter.   Inner-Iter.     Column Row Layer    Maximum-Head-Change  Column Row Layer    Maximum-Flux-Residual          L2-NORM 
          0                 1           2             5    8     1       0.8816354354E-01       5    8    1         0.4804105177E+01      0.1121189800E+02
          0                 2           2             5    8     1      -0.8575807480E-02       5    8    1        -0.4804034840E+00      0.1121160409E+01
          0                 3           2             5    8     1       0.5839816866E-03       5    8    1         0.3362832496E-01      0.7848115156E-01
          0                 4           1             5    8     1      -0.2323717342E-04       5    8    1        -0.1375400102E-02      0.3209868702E-02

    ------------------------------------------------
       NWT REQUIRED            4 OUTER ITERATIONS 
       AND A TOTAL OF          7 INNER ITERATIONS.
    ------------------------------------------------

 NO OUTPUT CONTROL FOR STRESS PERIOD   23   TIME STEP    1
 
 SOLVING FOR HEAD 
                                                   Max.-Head-Change                         Max.-Flux-Residual
  Residual-Control   Outer-Iter.   Inner-Iter.     Column Row Layer    Maximum-Head-Change  Column Row Layer    Maximum-Flux-Residual          L2-NORM 
          0                 1           2             5    8     1       0.8416016007E-01       5    8    1         0.4581511918E+01      0.1082336224E+02
          0                 2           2             5    8     1      -0.8186396319E-02       5    8    1        -0.4581447780E+00      0.1082310164E+01
          0                 3           2             5    8     1       0.5574641428E-03       5    8    1         0.3207020898E-01      0.7576164309E-01
          0                 4           1             5    8     1      -0.2218201583E-04       5    8    1        -0.1311673091E-02      0.3098636079E-02

    ------------------------------------------------
       NWT REQUIRED            4 OUTER ITERATIONS 
       AND A TOTAL OF          7 INNER ITERATIONS.
    ------------------------------------------------

 NO OUTPUT CONTROL FOR STRESS PERIOD   23   TIME STEP    2
 
 SOLVING FOR HEAD 
                                                   Max.-Head-Change                         Max.-Flux-Residual
  Residual-Control   Outer-Iter.   Inner-Iter.     Column Row Layer    Maximum-Head-Change  Column Row Layer    Maximum-Flux-Residual          L2-NORM 
          0                 1           2             5    8     1       0.8041559485E-01       5    8    1         0.4373470312E+01      0.1045831815E+02
          0                 2           2             5    8     1      -0.7822160036E-02       5    8    1        -0.4373411613E+00      0.1045808730E+01
          0                 3           2             5    8     1       0.5326609265E-03       5    8    1         0.3061395007E-01      0.7320658611E-01
          0                 4           1             5    8     1      -0.2119507297E-04       5    8    1        -0.1252112047E-02      0.2994161244E-02

    ------------------------------------------------
       NWT REQUIRED            4 OUTER ITERATIONS 
       AND A TOTAL OF          7 INNER ITERATIONS.
    ------------------------------------------------

 NO OUTPUT CONTROL FOR STRESS PERIOD   23   TIME STEP    3
 
 SOLVING FOR HEAD 
                                                   Max.-Head-Change                         Max.-Flux-Residual
  Residual-Control   Outer-Iter.   Inner-Iter.     Column Row Layer    Maximum-Head-Change  Column Row Layer    Maximum-Flux-Residual          L2-NORM 
          0                 1           2             5    8     1       0.7691056092E-01       5    8    1         0.4178887272E+01      0.1011492592E+02
          0                 2           2             5    8     1      -0.7481222696E-02       5    8    1        -0.4178833367E+00      0.1011472168E+01
          0                 3           2             5    8     1       0.5094442904E-03       5    8    1         0.2925189721E-01      0.7080302017E-01
          0                 4           1             5    8     1      -0.2027126182E-04       5    8    1        -0.1196404040E-02      0.2895832986E-02

    ------------------------------------------------
       NWT REQUIRED            4 OUTER ITERATIONS 
       AND A TOTAL OF          7 INNER ITERATIONS.
    ------------------------------------------------

 NO OUTPUT CONTROL FOR STRESS PERIOD   23   TIME STEP    4
 
 SOLVING FOR HEAD 
                                                   Max.-Head-Change                         Max.-Flux-Residual
  Residual-Control   Outer-Iter.   Inner-Iter.     Column Row Layer    Maximum-Head-Change  Column Row Layer    Maximum-Flux-Residual          L2-NORM 
          0                 1           2             5    8     1       0.7362712264E-01       5    8    1         0.3996747128E+01      0.9791490088E+01
          0                 2           2             5    8     1      -0.7161839786E-02       5    8    1        -0.3996697467E+00      0.9791309355E+00
          0                 3           2             5    8     1       0.4876954382E-03       5    8    1         0.2797694133E-01      0.6853912757E-01
          0                 4           1             5    8     1      -0.1940585467E-04       5    8    1        -0.1144258275E-02      0.2803245556E-02

    ------------------------------------------------
       NWT REQUIRED            4 OUTER ITERATIONS 
       AND A TOTAL OF          7 INNER ITERATIONS.
    ------------------------------------------------

 NO OUTPUT CONTROL FOR STRESS PERIOD   23   TIME STEP    5
 
 SOLVING FOR HEAD 
                                                   Max.-Head-Change                         Max.-Flux-Residual
  Residual-Control   Outer-Iter.   Inner-Iter.     Column Row Layer    Maximum-Head-Change  Column Row Layer    Maximum-Flux-Residual          L2-NORM 
          0                 1           2             5    8     1       0.7054870523E-01       5    8    1         0.3826112107E+01      0.9486472825E+01
          0                 2           2             5    8     1      -0.6862399144E-02       5    8    1        -0.3826066217E+00      0.9486313025E+00
          0                 3           2             5    8     1       0.4673045872E-03       5    8    1         0.2678251850E-01      0.6640414826E-01
          0                 4           1             5    8     1      -0.1859448358E-04       5    8    1        -0.1095406320E-02      0.2715914535E-02

    ------------------------------------------------
       NWT REQUIRED            4 OUTER ITERATIONS 
       AND A TOTAL OF          7 INNER ITERATIONS.
    ------------------------------------------------

 NO OUTPUT CONTROL FOR STRESS PERIOD   23   TIME STEP    6
 
 SOLVING FOR HEAD 
                                                   Max.-Head-Change                         Max.-Flux-Residual
  Residual-Control   Outer-Iter.   Inner-Iter.     Column Row Layer    Maximum-Head-Change  Column Row Layer    Maximum-Flux-Residual          L2-NORM 
          0                 1           2             5    8     1       0.6766053540E-01       5    8    1         0.3666146351E+01      0.9198483176E+01
          0                 2           2             5    8     1      -0.6581463828E-02       5    8    1        -0.3666103831E+00      0.9198342251E+00
          0                 3           2             5    8     1       0.4481738866E-03       5    8    1         0.2566277814E-01      0.6438838714E-01
          0                 4           1             5    8     1      -0.1783325551E-04       5    8    1        -0.1049608901E-02      0.2633479330E-02

    ------------------------------------------------
       NWT REQUIRED            4 OUTER ITERATIONS 
       AND A TOTAL OF          7 INNER ITERATIONS.
    ------------------------------------------------

 NO OUTPUT CONTROL FOR STRESS PERIOD   23   TIME STEP    7
 
 SOLVING FOR HEAD 
                                                   Max.-Head-Change                         Max.-Flux-Residual
  Residual-Control   Outer-Iter.   Inner-Iter.     Column Row Layer    Maximum-Head-Change  Column Row Layer    Maximum-Flux-Residual          L2-NORM 
          0                 1           2             5    6     1       0.6505657859E-01       5    8    1         0.3516060373E+01      0.8926237569E+01
          0                 2           2             5    6     1      -0.6328170871E-02       5    8    1        -0.3516020874E+00      0.8926113502E+00
          0                 3           2             5    6     1       0.4309255654E-03       5    8    1         0.2461219412E-01      0.6248279366E-01
          0                 4           1             5    6     1      -0.1714688801E-04       5    8    1        -0.1006639964E-02      0.2555540373E-02

    ------------------------------------------------
       NWT REQUIRED            4 OUTER ITERATIONS 
       AND A TOTAL OF          7 INNER ITERATIONS.
    ------------------------------------------------

 NO OUTPUT CONTROL FOR STRESS PERIOD   23   TIME STEP    8
 
 SOLVING FOR HEAD 
                                                   Max.-Head-Change                         Max.-Flux-Residual
  Residual-Control   Outer-Iter.   Inner-Iter.     Column Row Layer    Maximum-Head-Change  Column Row Layer    Maximum-Flux-Residual          L2-NORM 
          0                 1           2             5    6     1       0.6262406401E-01       5    6    1         0.3381109442E+01      0.8668556772E+01
          0                 2           2             5    6     1      -0.6091558007E-02       5    6    1        -0.3381070816E+00      0.8668447690E+00
          0                 3           2             5    6     1       0.4148130628E-03       5    6    1         0.2366754249E-01      0.6067913494E-01
          0                 4           1             5    6     1      -0.1650575749E-04       5    6    1        -0.9680036746E-03      0.2481772994E-02

    ------------------------------------------------
       NWT REQUIRED            4 OUTER ITERATIONS 
       AND A TOTAL OF          7 INNER ITERATIONS.
    ------------------------------------------------

 NO OUTPUT CONTROL FOR STRESS PERIOD   23   TIME STEP    9
 
 SOLVING FOR HEAD 
                                                   Max.-Head-Change                         Max.-Flux-Residual
  Residual-Control   Outer-Iter.   Inner-Iter.     Column Row Layer    Maximum-Head-Change  Column Row Layer    Maximum-Flux-Residual          L2-NORM 
          0                 1           2             5    6     1       0.6032653042E-01       5    6    1         0.3254681684E+01      0.8424381597E+01
          0                 2           2             5    6     1      -0.5868074747E-02       5    6    1        -0.3254645893E+00      0.8424285836E+00
          0                 3           2             5    6     1       0.3995946409E-03       5    6    1         0.2278256496E-01      0.5896999937E-01
          0                 4           1             5    6     1      -0.1590020323E-04       5    6    1        -0.9318080420E-03      0.2411866530E-02

    ------------------------------------------------
       NWT REQUIRED            4 OUTER ITERATIONS 
       AND A TOTAL OF          7 INNER ITERATIONS.
    ------------------------------------------------

 NO OUTPUT CONTROL FOR STRESS PERIOD   23   TIME STEP   10
 
 SOLVING FOR HEAD 
                                                   Max.-Head-Change                         Max.-Flux-Residual
  Residual-Control   Outer-Iter.   Inner-Iter.     Column Row Layer    Maximum-Head-Change  Column Row Layer    Maximum-Flux-Residual          L2-NORM 
          0                 1           2             5    7     1       0.5894195111E-01       5    6    1         0.3135285411E+01      0.8192734976E+01
          0                 2           2             5    7     1      -0.5733424526E-02       5    6    1        -0.3135252225E+00      0.8192651131E+00
          0                 3           2             5    7     1       0.3904251514E-03       5    6    1         0.2194680646E-01      0.5734856676E-01
          0                 4           1             5    7     1      -0.1553538678E-04       5    6    1        -0.8976254928E-03      0.2345556608E-02

    ------------------------------------------------
       NWT REQUIRED            4 OUTER ITERATIONS 
       AND A TOTAL OF          7 INNER ITERATIONS.
    ------------------------------------------------

 NO OUTPUT CONTROL FOR STRESS PERIOD   23   TIME STEP   11
 
 SOLVING FOR HEAD 
                                                   Max.-Head-Change                         Max.-Flux-Residual
  Residual-Control   Outer-Iter.   Inner-Iter.     Column Row Layer    Maximum-Head-Change  Column Row Layer    Maximum-Flux-Residual          L2-NORM 
          0                 1           2             5    7     1       0.5774617908E-01       5    7    1         0.3063299091E+01      0.7972728175E+01
          0                 2           2             5    7     1      -0.5617113421E-02       5    7    1        -0.3063289221E+00      0.7972654935E+00
          0                 3           2             5    7     1       0.3825047483E-03       5    7    1         0.2144304315E-01      0.5580858978E-01
          0                 4           1             5    7     1      -0.1522022659E-04       5    7    1        -0.8770216482E-03      0.2282572638E-02

    ------------------------------------------------
       NWT REQUIRED            4 OUTER ITERATIONS 
       AND A TOTAL OF          7 INNER ITERATIONS.
    ------------------------------------------------

 NO OUTPUT CONTROL FOR STRESS PERIOD   23   TIME STEP   12
 
 SOLVING FOR HEAD 
                                                   Max.-Head-Change                         Max.-Flux-Residual
  Residual-Control   Outer-Iter.   Inner-Iter.     Column Row Layer    Maximum-Head-Change  Column Row Layer    Maximum-Flux-Residual          L2-NORM 
          0                 1           2             5    7     1       0.5657321144E-01       5    7    1         0.3001152081E+01      0.7763528569E+01
          0                 2           2             5    7     1      -0.5503019935E-02       5    7    1        -0.3001145110E+00      0.7763464868E+00
          0                 3           2             5    7     1       0.3747353628E-03       5    7    1         0.2100803144E-01      0.5434426624E-01
          0                 4           1             5    7     1      -0.1491107594E-04       5    7    1        -0.8592296472E-03      0.2222680909E-02

    ------------------------------------------------
       NWT REQUIRED            4 OUTER ITERATIONS 
       AND A TOTAL OF          7 INNER ITERATIONS.
    ------------------------------------------------

 NO OUTPUT CONTROL FOR STRESS PERIOD   23   TIME STEP   13
 
 SOLVING FOR HEAD 
                                                   Max.-Head-Change                         Max.-Flux-Residual
  Residual-Control   Outer-Iter.   Inner-Iter.     Column Row Layer    Maximum-Head-Change  Column Row Layer    Maximum-Flux-Residual          L2-NORM 
          0                 1           2             4    7     1       0.5560451751E-01       5    7    1         0.2940195649E+01      0.7564395268E+01
          0                 2           2             4    7     1      -0.5408805443E-02       5    7    1        -0.2940191201E+00      0.7564340776E+00
          0                 3           2             4    7     1       0.3683195781E-03       5    7    1         0.2058135151E-01      0.5295048046E-01
          0                 4           1             4    7     1      -0.1465578048E-04       5    7    1        -0.8417784327E-03      0.2165673284E-02

    ------------------------------------------------
       NWT REQUIRED            4 OUTER ITERATIONS 
       AND A TOTAL OF          7 INNER ITERATIONS.
    ------------------------------------------------

 NO OUTPUT CONTROL FOR STRESS PERIOD   23   TIME STEP   14
 
 SOLVING FOR HEAD 
                                                   Max.-Head-Change                         Max.-Flux-Residual
  Residual-Control   Outer-Iter.   Inner-Iter.     Column Row Layer    Maximum-Head-Change  Column Row Layer    Maximum-Flux-Residual          L2-NORM 
          0                 1           2             4    7     1       0.5518848250E-01       4    7    1         0.2889112145E+01      0.7374625513E+01
          0                 2           2             4    7     1      -0.5368340761E-02       4    7    1        -0.2889116941E+00      0.7374577952E+00
          0                 3           2             4    7     1       0.3655640423E-03       4    7    1         0.2022382279E-01      0.5162206015E-01
          0                 4           1             4    7     1      -0.1454613514E-04       4    7    1        -0.8271555209E-03      0.2111340980E-02

    ------------------------------------------------
       NWT REQUIRED            4 OUTER ITERATIONS 
       AND A TOTAL OF          7 INNER ITERATIONS.
    ------------------------------------------------

 NO OUTPUT CONTROL FOR STRESS PERIOD   23   TIME STEP   15
 
 SOLVING FOR HEAD 
                                                   Max.-Head-Change                         Max.-Flux-Residual
  Residual-Control   Outer-Iter.   Inner-Iter.     Column Row Layer    Maximum-Head-Change  Column Row Layer    Maximum-Flux-Residual          L2-NORM 
          0                 1           2             4    7     1       0.5474561806E-01       4    7    1         0.2867497629E+01      0.7193596359E+01
          0                 2           2             4    7     1      -0.5325265853E-02       4    7    1        -0.2867504909E+00      0.7193555435E+00
          0                 3           2             4    7     1       0.3626307643E-03       4    7    1         0.2007253615E-01      0.5035490130E-01
          0                 4           1             4    7     1      -0.1442941763E-04       4    7    1        -0.8209679008E-03      0.2059514086E-02

    ------------------------------------------------
       NWT REQUIRED            4 OUTER ITERATIONS 
       AND A TOTAL OF          7 INNER ITERATIONS.
    ------------------------------------------------

 NO OUTPUT CONTROL FOR STRESS PERIOD   23   TIME STEP   16
 
 SOLVING FOR HEAD 
                                                   Max.-Head-Change                         Max.-Flux-Residual
  Residual-Control   Outer-Iter.   Inner-Iter.     Column Row Layer    Maximum-Head-Change  Column Row Layer    Maximum-Flux-Residual          L2-NORM 
          0                 1           2             4    7     1       0.5427863718E-01       4    7    1         0.2844492033E+01      0.7020728139E+01
          0                 2           2             4    7     1      -0.5279844657E-02       4    7    1        -0.2844501521E+00      0.7020693279E+00
          0                 3           2             4    7     1       0.3595377169E-03       4    7    1         0.1991151027E-01      0.4914487288E-01
          0                 4           1             4    7     1      -0.1430634243E-04       4    7    1        -0.8143819455E-03      0.2010024403E-02

    ------------------------------------------------
       NWT REQUIRED            4 OUTER ITERATIONS 
       AND A TOTAL OF          7 INNER ITERATIONS.
    ------------------------------------------------

 NO OUTPUT CONTROL FOR STRESS PERIOD   23   TIME STEP   17
 
 SOLVING FOR HEAD 
                                                   Max.-Head-Change                         Max.-Flux-Residual
  Residual-Control   Outer-Iter.   Inner-Iter.     Column Row Layer    Maximum-Head-Change  Column Row Layer    Maximum-Flux-Residual          L2-NORM 
          0                 1           2             4    7     1       0.5378980798E-01       4    7    1         0.2820221388E+01      0.6855467675E+01
          0                 2           2             4    7     1      -0.5232297832E-02       4    7    1        -0.2820232827E+00      0.6855438134E+00
          0                 3           2             4    7     1       0.3562999258E-03       4    7    1         0.1974162749E-01      0.4798808221E-01
          0                 4           1             4    7     1      -0.1417750773E-04       4    7    1        -0.8074337452E-03      0.1962711507E-02

    ------------------------------------------------
       NWT REQUIRED            4 OUTER ITERATIONS 
       AND A TOTAL OF          7 INNER ITERATIONS.
    ------------------------------------------------

 NO OUTPUT CONTROL FOR STRESS PERIOD   23   TIME STEP   18
 
 SOLVING FOR HEAD 
                                                   Max.-Head-Change                         Max.-Flux-Residual
  Residual-Control   Outer-Iter.   Inner-Iter.     Column Row Layer    Maximum-Head-Change  Column Row Layer    Maximum-Flux-Residual          L2-NORM 
          0                 1           2             4    7     1       0.5328165032E-01       4    7    1         0.2794825240E+01      0.6697331912E+01
          0                 2           2             4    7     1      -0.5182870526E-02       4    7    1        -0.2794838398E+00      0.6697307117E+00
          0                 3           2             4    7     1       0.3529340843E-03       4    7    1         0.1956386480E-01      0.4688117129E-01
          0                 4           1             4    7     1      -0.1404357784E-04       4    7    1        -0.8001632341E-03      0.1917451996E-02

    ------------------------------------------------
       NWT REQUIRED            4 OUTER ITERATIONS 
       AND A TOTAL OF          7 INNER ITERATIONS.
    ------------------------------------------------

 NO OUTPUT CONTROL FOR STRESS PERIOD   23   TIME STEP   19
 
 SOLVING FOR HEAD 
                                                   Max.-Head-Change                         Max.-Flux-Residual
  Residual-Control   Outer-Iter.   Inner-Iter.     Column Row Layer    Maximum-Head-Change  Column Row Layer    Maximum-Flux-Residual          L2-NORM 
          0                 1           2             4    7     1       0.5275639052E-01       4    7    1         0.2768426926E+01      0.6545876804E+01
          0                 2           2             4    7     1      -0.5131779325E-02       4    7    1        -0.2768441589E+00      0.6545856266E+00
          0                 3           2             4    7     1       0.3494549408E-03       4    7    1         0.1937908563E-01      0.4582100985E-01
          0                 4           1             4    7     1      -0.1390513966E-04       4    7    1        -0.7926057615E-03      0.1874081772E-02

    ------------------------------------------------
       NWT REQUIRED            4 OUTER ITERATIONS 
       AND A TOTAL OF          7 INNER ITERATIONS.
    ------------------------------------------------

 NO OUTPUT CONTROL FOR STRESS PERIOD   23   TIME STEP   20
 
 SOLVING FOR HEAD 
                                                   Max.-Head-Change                         Max.-Flux-Residual
  Residual-Control   Outer-Iter.   Inner-Iter.     Column Row Layer    Maximum-Head-Change  Column Row Layer    Maximum-Flux-Residual          L2-NORM 
          0                 1           2             4    7     1       0.5221596563E-01       4    7    1         0.2741134556E+01      0.6400673258E+01
          0                 2           2             4    7     1      -0.5079212683E-02       4    7    1        -0.2741150527E+00      0.6400656457E+00
          0                 3           2             4    7     1       0.3458753279E-03       4    7    1         0.1918804685E-01      0.4480460872E-01
          0                 4           1             4    7     1      -0.1376270368E-04       4    7    1        -0.7847922752E-03      0.1832511101E-02

    ------------------------------------------------
       NWT REQUIRED            4 OUTER ITERATIONS 
       AND A TOTAL OF          7 INNER ITERATIONS.
    ------------------------------------------------

 NO OUTPUT CONTROL FOR STRESS PERIOD   23   TIME STEP   21
 
 SOLVING FOR HEAD 
                                                   Max.-Head-Change                         Max.-Flux-Residual
  Residual-Control   Outer-Iter.   Inner-Iter.     Column Row Layer    Maximum-Head-Change  Column Row Layer    Maximum-Flux-Residual          L2-NORM 
          0                 1           2             4    7     1       0.5166231259E-01       4    7    1         0.2713055882E+01      0.6261335565E+01
          0                 2           2             4    7     1      -0.5025359037E-02       4    7    1        -0.2713072983E+00      0.6261322060E+00
          0                 3           2             4    7     1       0.3422080778E-03       4    7    1         0.1899150290E-01      0.4382927355E-01
          0                 4           1             4    7     1      -0.1361678037E-04       4    7    1        -0.7767536183E-03      0.1792620040E-02

    ------------------------------------------------
       NWT REQUIRED            4 OUTER ITERATIONS 
       AND A TOTAL OF          7 INNER ITERATIONS.
    ------------------------------------------------

 NO OUTPUT CONTROL FOR STRESS PERIOD   23   TIME STEP   22
 
 SOLVING FOR HEAD 
                                                   Max.-Head-Change                         Max.-Flux-Residual
  Residual-Control   Outer-Iter.   Inner-Iter.     Column Row Layer    Maximum-Head-Change  Column Row Layer    Maximum-Flux-Residual          L2-NORM 
          0                 1           2             4    7     1       0.5109710074E-01       4    7    1         0.2684284010E+01      0.6127505270E+01
          0                 2           2             4    7     1      -0.4970380789E-02       4    7    1        -0.2684302078E+00      0.6127494745E+00
          0                 3           2             4    7     1       0.3384642486E-03       4    7    1         0.1879010556E-01      0.4289247884E-01
          0                 4           1             4    7     1      -0.1346781043E-04       4    7    1        -0.7685164699E-03      0.1754302882E-02

    ------------------------------------------------
       NWT REQUIRED            4 OUTER ITERATIONS 
       AND A TOTAL OF          7 INNER ITERATIONS.
    ------------------------------------------------

 NO OUTPUT CONTROL FOR STRESS PERIOD   23   TIME STEP   23
 
 SOLVING FOR HEAD 
                                                   Max.-Head-Change                         Max.-Flux-Residual
  Residual-Control   Outer-Iter.   Inner-Iter.     Column Row Layer    Maximum-Head-Change  Column Row Layer    Maximum-Flux-Residual          L2-NORM 
          0                 1           2             4    7     1       0.5052214185E-01       4    7    1         0.2654920136E+01      0.5998857107E+01
          0                 2           2             4    7     1      -0.4914454199E-02       4    7    1        -0.2654939023E+00      0.5998849201E+00
          0                 3           2             4    7     1       0.3346558434E-03       4    7    1         0.1858456332E-01      0.4199195966E-01
          0                 4           1             4    7     1      -0.1331627039E-04       4    7    1        -0.7601097868E-03      0.1717473433E-02

    ------------------------------------------------
       NWT REQUIRED            4 OUTER ITERATIONS 
       AND A TOTAL OF          7 INNER ITERATIONS.
    ------------------------------------------------

 NO OUTPUT CONTROL FOR STRESS PERIOD   23   TIME STEP   24
 
 SOLVING FOR HEAD 
                                                   Max.-Head-Change                         Max.-Flux-Residual
  Residual-Control   Outer-Iter.   Inner-Iter.     Column Row Layer    Maximum-Head-Change  Column Row Layer    Maximum-Flux-Residual          L2-NORM 
          0                 1           2             4    7     1       0.4993899115E-01       4    7    1         0.2625050876E+01      0.5875089085E+01
          0                 2           2             4    7     1      -0.4857730570E-02       4    7    1        -0.2625070448E+00      0.5875078606E+00
          0                 3           2             4    7     1       0.3307931646E-03       4    7    1         0.1837548257E-01      0.4112556677E-01
          0                 4           1             4    7     1      -0.1316257067E-04       4    7    1        -0.7515583675E-03      0.1682038908E-02

    ------------------------------------------------
       NWT REQUIRED            4 OUTER ITERATIONS 
       AND A TOTAL OF          7 INNER ITERATIONS.
    ------------------------------------------------

 NO OUTPUT CONTROL FOR STRESS PERIOD   23   TIME STEP   25
 
 SOLVING FOR HEAD 
                                                   Max.-Head-Change                         Max.-Flux-Residual
  Residual-Control   Outer-Iter.   Inner-Iter.     Column Row Layer    Maximum-Head-Change  Column Row Layer    Maximum-Flux-Residual          L2-NORM 
          0                 1           2             4    7     1       0.4934882039E-01       4    7    1         0.2594742219E+01      0.5755913458E+01
          0                 2           2             4    7     1      -0.4800323898E-02       4    7    1        -0.2594762354E+00      0.5755909929E+00
          0                 3           2             4    7     1       0.3268839745E-03       4    7    1         0.1816332527E-01      0.4029138864E-01
          0                 4           1             4    7     1      -0.1300702027E-04       4    7    1        -0.7428811271E-03      0.1647922795E-02

    ------------------------------------------------
       NWT REQUIRED            4 OUTER ITERATIONS 
       AND A TOTAL OF          7 INNER ITERATIONS.
    ------------------------------------------------

 NO OUTPUT CONTROL FOR STRESS PERIOD   23   TIME STEP   26
 
 SOLVING FOR HEAD 
                                                   Max.-Head-Change                         Max.-Flux-Residual
  Residual-Control   Outer-Iter.   Inner-Iter.     Column Row Layer    Maximum-Head-Change  Column Row Layer    Maximum-Flux-Residual          L2-NORM 
          0                 1           2             4    7     1       0.4875324657E-01       4    7    1         0.2564084214E+01      0.5641075275E+01
          0                 2           2             4    7     1      -0.4742391491E-02       4    7    1        -0.2564104801E+00      0.5641073504E+00
          0                 3           2             4    7     1       0.3229389856E-03       4    7    1         0.1794872189E-01      0.3948752720E-01
          0                 4           1             4    7     1      -0.1285004529E-04       4    7    1        -0.7341038227E-03      0.1615040121E-02

    ------------------------------------------------
       NWT REQUIRED            4 OUTER ITERATIONS 
       AND A TOTAL OF          7 INNER ITERATIONS.
    ------------------------------------------------

 NO OUTPUT CONTROL FOR STRESS PERIOD   23   TIME STEP   27
 
 SOLVING FOR HEAD 
                                                   Max.-Head-Change                         Max.-Flux-Residual
  Residual-Control   Outer-Iter.   Inner-Iter.     Column Row Layer    Maximum-Head-Change  Column Row Layer    Maximum-Flux-Residual          L2-NORM 
          0                 1           2             4    7     1       0.4815349677E-01       4    7    1         0.2533146053E+01      0.5530325532E+01
          0                 2           2             4    7     1      -0.4684052728E-02       4    7    1        -0.2533166994E+00      0.5530325285E+00
          0                 3           2             4    7     1       0.3189663271E-03       4    7    1         0.1773215682E-01      0.3871229309E-01
          0                 4           1             4    7     1      -0.1269196980E-04       4    7    1        -0.7252463201E-03      0.1583334989E-02

    ------------------------------------------------
       NWT REQUIRED            4 OUTER ITERATIONS 
       AND A TOTAL OF          7 INNER ITERATIONS.
    ------------------------------------------------

 NO OUTPUT CONTROL FOR STRESS PERIOD   23   TIME STEP   28
 
 SOLVING FOR HEAD 
                                                   Max.-Head-Change                         Max.-Flux-Residual
  Residual-Control   Outer-Iter.   Inner-Iter.     Column Row Layer    Maximum-Head-Change  Column Row Layer    Maximum-Flux-Residual          L2-NORM 
          0                 1           2             4    7     1       0.4755044061E-01       4    7    1         0.2501976706E+01      0.5423441946E+01
          0                 2           2             4    7     1      -0.4625392211E-02       4    7    1        -0.2501997910E+00      0.5423443078E+00
          0                 3           2             4    7     1       0.3149717595E-03       4    7    1         0.1751397287E-01      0.3796411589E-01
          0                 4           1             4    7     1      -0.1253302256E-04       4    7    1        -0.7163225944E-03      0.1552734532E-02

    ------------------------------------------------
       NWT REQUIRED            4 OUTER ITERATIONS 
       AND A TOTAL OF          7 INNER ITERATIONS.
    ------------------------------------------------

 NO OUTPUT CONTROL FOR STRESS PERIOD   23   TIME STEP   29
 
 SOLVING FOR HEAD 
                                                   Max.-Head-Change                         Max.-Flux-Residual
  Residual-Control   Outer-Iter.   Inner-Iter.     Column Row Layer    Maximum-Head-Change  Column Row Layer    Maximum-Flux-Residual          L2-NORM 
          0                 1           2             4    7     1       0.4694527509E-01       4    7    1         0.2470643239E+01      0.5320224417E+01
          0                 2           2             4    7     1      -0.4566526390E-02       4    7    1        -0.2470664624E+00      0.5320226744E+00
          0                 3           2             4    7     1       0.3109632124E-03       4    7    1         0.1729463960E-01      0.3724159812E-01
          0                 4           1             4    7     1      -0.1237351856E-04       4    7    1        -0.7073518539E-03      0.1523184411E-02

    ------------------------------------------------
       NWT REQUIRED            4 OUTER ITERATIONS 
       AND A TOTAL OF          7 INNER ITERATIONS.
    ------------------------------------------------

 NO OUTPUT CONTROL FOR STRESS PERIOD   23   TIME STEP   30



 STREAM LISTING     PERIOD     23   STEP       30

 LAYER ROW COL. STREAM  RCH.  FLOW INTO     FLOW TO   FLOW OUT OF   OVRLND.     DIRECT     STREAM       STREAM     STREAM     STREAM   STREAMBED  STREAMBED
                SEG.NO.  NO.  STRM. RCH.    AQUIFER    STRM. RCH.    RUNOFF     PRECIP       ET          HEAD       DEPTH      WIDTH   CONDCTNC.   GRADIENT

   1    1    1     1     1    1.6500E+01  1.9759E-01   1.6303E+01  0.000E+00  0.000E+00  0.000E+00  1.09409E+03  1.039E+00  1.087E+01  4.893E-02  1.346E+00
   1    2    2     1     2    1.6303E+01  3.0466E-01   1.5998E+01  0.000E+00  0.000E+00  0.000E+00  1.08909E+03  1.034E+00  1.079E+01  7.552E-02  1.345E+00
   1    3    3     1     3    1.5998E+01  2.5853E-01   1.5739E+01  0.000E+00  0.000E+00  0.000E+00  1.08345E+03  1.029E+00  1.070E+01  6.417E-02  1.343E+00
   1    3    4     1     4    1.5739E+01  2.3700E-01   1.5502E+01  0.000E+00  0.000E+00  0.000E+00  1.07843E+03  1.024E+00  1.061E+01  5.890E-02  1.341E+00
   1    4    5     2     1    1.3502E+01  2.9865E-01   1.3204E+01  0.000E+00  0.000E+00  0.000E+00  1.07276E+03  8.289E-01  1.200E+01  7.800E-02  1.276E+00
   1    5    6     2     2    1.3204E+01  2.2914E-01   1.2975E+01  0.000E+00  0.000E+00  0.000E+00  1.06733E+03  8.190E-01  1.200E+01  6.000E-02  1.273E+00
   1    6    6     2     3    1.2975E+01  2.2862E-01   1.2746E+01  0.000E+00  0.000E+00  0.000E+00  1.06260E+03  8.104E-01  1.200E+01  6.000E-02  1.270E+00
   1    7    6     2     4    1.2746E+01  2.2810E-01   1.2518E+01  0.000E+00  0.000E+00  0.000E+00  1.05788E+03  8.017E-01  1.200E+01  6.000E-02  1.267E+00
   1    8    6     2     5    1.2518E+01  2.2758E-01   1.2290E+01  0.000E+00  0.000E+00  0.000E+00  1.05315E+03  7.930E-01  1.200E+01  6.000E-02  1.264E+00
   1    3    5     3     1    2.0000E+00  2.8252E-01   1.7175E+00  0.000E+00  0.000E+00  0.000E+00  1.07555E+03  1.909E+00  9.636E+00  7.227E-02  1.955E+00
   1    3    6     3     2    1.7175E+00  2.4905E-01   1.4684E+00  0.000E+00  0.000E+00  0.000E+00  1.07264E+03  1.727E+00  8.909E+00  6.682E-02  1.864E+00
   1    3    7     3     3    1.4684E+00  1.9718E-01   1.2712E+00  0.000E+00  0.000E+00  0.000E+00  1.06987E+03  1.555E+00  8.218E+00  5.547E-02  1.777E+00
   1    4    8     3     4    1.2712E+00  2.2567E-01   1.0456E+00  0.000E+00  0.000E+00  0.000E+00  1.06682E+03  1.364E+00  7.455E+00  6.709E-02  1.682E+00
   1    5    8     3     5    1.0456E+00  1.5790E-01   8.8768E-01  0.000E+00  0.000E+00  0.000E+00  1.06362E+03  1.164E+00  6.655E+00  4.991E-02  1.582E+00
   1    6    8     3     6    8.8768E-01  5.5980E-02   8.3170E-01  0.000E+00  0.000E+00  0.000E+00  1.06158E+03  1.036E+00  6.145E+00  1.844E-02  1.518E+00
   1    5   10     4     1    1.0000E+01  9.0919E-02   9.9091E+00  0.000E+00  0.000E+00  0.000E+00  1.07836E+03  6.368E-01  1.000E+01  2.500E-02  1.212E+00
   1    5    9     4     2    9.9091E+00  1.8158E-01   9.7275E+00  0.000E+00  0.000E+00  0.000E+00  1.07154E+03  6.315E-01  1.000E+01  5.000E-02  1.211E+00
   1    6    8     4     3    9.7275E+00  1.2689E-01   9.6006E+00  0.000E+00  0.000E+00  0.000E+00  1.06381E+03  6.256E-01  1.000E+01  3.500E-02  1.209E+00
   1    6    8     5     1    1.0432E+01  2.2686E-01   1.0205E+01  0.000E+00  0.000E+00  0.000E+00  1.05868E+03  6.790E-01  1.542E+01  6.166E-02  1.226E+00
   1    7    7     5     2    1.0205E+01  2.7894E-01   9.9265E+00  0.000E+00  0.000E+00  0.000E+00  1.05417E+03  6.732E-01  1.519E+01  7.594E-02  1.224E+00
   1    8    7     5     3    9.9265E+00  1.9221E-01   9.7343E+00  0.000E+00  0.000E+00  0.000E+00  1.04992E+03  6.676E-01  1.497E+01  5.241E-02  1.223E+00
   1    8    6     5     4    9.7343E+00  1.3577E-01   9.5985E+00  0.000E+00  0.000E+00  0.000E+00  1.04691E+03  6.637E-01  1.482E+01  3.706E-02  1.221E+00
   1    9    6     6     1    2.1889E+01  2.4742E-01   2.1641E+01  0.000E+00  0.000E+00  0.000E+00  1.04385E+03  1.124E+00  1.200E+01  6.000E-02  1.375E+00
   1   10    7     6     2    2.1641E+01  2.4696E-01   2.1395E+01  0.000E+00  0.000E+00  0.000E+00  1.03930E+03  1.116E+00  1.200E+01  6.000E-02  1.372E+00
   1   11    7     6     3    2.1395E+01  2.4650E-01   2.1148E+01  0.000E+00  0.000E+00  0.000E+00  1.03474E+03  1.108E+00  1.200E+01  6.000E-02  1.369E+00
   1   12    7     6     4    2.1148E+01  2.4603E-01   2.0902E+01  0.000E+00  0.000E+00  0.000E+00  1.03019E+03  1.101E+00  1.200E+01  6.000E-02  1.367E+00
   1   13    7     6     5    2.0902E+01 -1.5286E-02   2.0917E+01  0.000E+00  0.000E+00  0.000E+00  1.02701E+03  1.097E+00  1.200E+01  2.400E-01 -2.123E-02
   1   14    9     7     1    1.5000E+02  1.3377E+00   1.4866E+02  0.000E+00  0.000E+00  0.000E+00  1.03987E+03  2.288E+00  5.529E+01  5.593E-01  7.973E-01
   1   13    8     7     2    1.4866E+02  1.8359E+00   1.4683E+02  0.000E+00  0.000E+00  0.000E+00  1.03478E+03  2.279E+00  5.526E+01  6.148E-01  9.954E-01
   1   13    7     7     3    1.4683E+02  1.4632E+00   1.4536E+02  0.000E+00  0.000E+00  0.000E+00  1.02969E+03  2.270E+00  5.522E+01  5.585E-01  8.734E-01
   1   13    6     8     1    1.6628E+02  8.9061E-01   1.6539E+02  0.000E+00  0.000E+00  0.000E+00  1.02480E+03  2.925E+00  4.241E+01  4.322E-01  6.869E-01
   1   13    5     8     2    1.6539E+02  1.4742E-01   1.6524E+02  0.000E+00  0.000E+00  0.000E+00  1.01855E+03  2.921E+00  4.236E+01  4.317E-01  1.138E-01
   1   13    4     8     3    1.6524E+02 -2.5310E+00   1.6777E+02  0.000E+00  0.000E+00  0.000E+00  1.01230E+03  2.929E+00  4.248E+01  4.328E+00 -1.949E-01
   1   13    3     8     4    1.6777E+02 -3.6864E+00   1.7146E+02  0.000E+00  0.000E+00  0.000E+00  1.00607E+03  2.950E+00  4.277E+01  4.358E+00 -2.819E-01
   1   13    2     8     5    1.7146E+02 -2.5749E+00   1.7403E+02  0.000E+00  0.000E+00  0.000E+00  9.99845E+02  2.970E+00  4.307E+01  4.388E+00 -1.956E-01
   1   13    1     8     6    1.7403E+02 -1.9669E+00   1.7600E+02  0.000E+00  0.000E+00  0.000E+00  9.94860E+02  2.985E+00  4.328E+01  2.646E+00 -2.478E-01
   1    8    6     9     1    0.0000E+00  0.0000E+00   0.0000E+00  0.000E+00  0.000E+00  0.000E+00  1.07875E+03  0.000E+00  4.000E+00  0.000E+00  1.000E+00
   1    8    5     9     2    0.0000E+00  0.0000E+00   0.0000E+00  0.000E+00  0.000E+00  0.000E+00  1.07825E+03  0.000E+00  4.000E+00  0.000E+00  1.000E+00





UNSATURATED ZONE PACKAGE VOLUMETRIC BUDGET FOR  TIME STEP    30 STRESS PERIOD   23
  ------------------------------------------------------------------------------



     CUMULATIVE VOLUMES      L**3       RATES FOR THIS TIME STEP      L**3/T
     ------------------                 ------------------------

           IN:                                      IN:
           ---                                      ---
        INFILTRATION =  1025356052.3789          INFILTRATION =           0.8475

          OUT:                                     OUT:
          ----                                     ----
              UZF ET =   856854705.4883                UZF ET =           0.8475
        UZF RECHARGE =       73224.0000          UZF RECHARGE =       0.0000E+00

            IN - OUT =   168428122.8906              IN - OUT =       0.0000E+00

          STORAGE:                                 STORAGE:
          --------                                 --------
      STORAGE CHANGE =   168548325.5275        STORAGE CHANGE =       4.6743E-13

 PERCENT DISCREPANCY IS DIFFERENCE BETWEEN IN-OUT MINUS CHANGE IN STORAGE
 DIVIDED BY THE AVERAGE OF IN AND OUT TIMES 100

 PERCENT DISCREPANCY =          -0.00     PERCENT DISCREPANCY =           0.00






1
  VOLUMETRIC BUDGET FOR AGRICULTURAL FIELDS AT  END OF TIME STEP   30, STRESS PERIOD  23
  ------------------------------------------------------------------------------

     CUMULATIVE VOLUMES      L**3       RATES FOR THIS TIME STEP      L**3/T
     ------------------                 ------------------------

           IN:                                      IN:
           ---                                      ---
           AG WELLS      =   363470336.0000             AG WELLS      =           0.0000
      DIVERSION SEGMENTS =   612812416.0000        DIVERSION SEGMENTS =           0.0000
           GW IRRIGATION =           0.0000             GW IRRIGATION =           0.0000
           SW IRRIGATION =           0.0000             SW IRRIGATION =           0.0000
        SYSTEM LOSSES GW =           0.0000          SYSTEM LOSSES GW =           0.0000
        SYSTEM LOSSES SW =           0.0000          SYSTEM LOSSES SW =           0.0000

                TOTAL IN =   976282752.0000                  TOTAL IN =           0.0000

          OUT:                                     OUT:
          ----                                     ----
           AG WELLS      =           0.0000             AG WELLS      =           0.0000
      DIVERSION SEGMENTS =           0.0000        DIVERSION SEGMENTS =           0.0000
           GW IRRIGATION =   363470336.0000             GW IRRIGATION =           0.0000
           SW IRRIGATION =   612825280.0000             SW IRRIGATION =           0.0000
        SYSTEM LOSSES GW =           0.0000          SYSTEM LOSSES GW =           0.0000
        SYSTEM LOSSES SW =           0.0000          SYSTEM LOSSES SW =           0.0000

               TOTAL OUT =   976295616.0000                 TOTAL OUT =           0.0000

                IN - OUT =      -12864.0000                  IN - OUT =           0.0000

     PERCENT DISCREPANCY =          -0.00         PERCENT DISCREPANCY =           0.00



1
  VOLUMETRIC BUDGET FOR ENTIRE MODEL AT END OF TIME STEP   30, STRESS PERIOD  23
  ------------------------------------------------------------------------------

     CUMULATIVE VOLUMES      L**3       RATES FOR THIS TIME STEP      L**3/T
     ------------------                 ------------------------

           IN:                                      IN:
           ---                                      ---
             STORAGE     =   531377216.0000               STORAGE     =          11.5855
       CONSTANT HEAD     =           0.0000         CONSTANT HEAD     =           0.0000
     HEAD DEP BOUNDS     =    16559784.0000       HEAD DEP BOUNDS     =           0.2859
      STREAM LEAKAGE     =   691365568.0000        STREAM LEAKAGE     =          11.2731
        UZF RECHARGE     =       73223.9531          UZF RECHARGE     =           0.0000
               GW ET     =           0.0000                 GW ET     =           0.0000
     SURFACE LEAKAGE     =           0.0000       SURFACE LEAKAGE     =           0.0000
           AG WELLS      =           0.0000             AG WELLS      =           0.0000

                TOTAL IN =  1239375872.0000                  TOTAL IN =          23.1445

          OUT:                                     OUT:
          ----                                     ----
             STORAGE     =   229072512.0000               STORAGE     =          12.0811
       CONSTANT HEAD     =           0.0000         CONSTANT HEAD     =           0.0000
     HEAD DEP BOUNDS     =    16845686.0000       HEAD DEP BOUNDS     =           0.2889
      STREAM LEAKAGE     =   627771520.0000        STREAM LEAKAGE     =          10.7745
        UZF RECHARGE     =           0.0000          UZF RECHARGE     =           0.0000
               GW ET     =     2220319.5000                 GW ET     =           0.0000
     SURFACE LEAKAGE     =           0.0000       SURFACE LEAKAGE     =           0.0000
           AG WELLS      =   363470336.0000             AG WELLS      =           0.0000

               TOTAL OUT =  1239380352.0000                 TOTAL OUT =          23.1445

                IN - OUT =       -4480.0000                  IN - OUT =       3.8147E-06

     PERCENT DISCREPANCY =          -0.00         PERCENT DISCREPANCY =           0.00






         TIME SUMMARY AT END OF TIME STEP   30 IN STRESS PERIOD   23
                    SECONDS     MINUTES      HOURS       DAYS        YEARS
                    -----------------------------------------------------------
   TIME STEP LENGTH  87667.      1461.1      24.352      1.0147     2.77799E-03
 STRESS PERIOD TIME 2.63000E+06  43833.      730.56      30.440     8.33397E-02
         TOTAL TIME 5.79467E+07 9.65778E+05  16096.      670.68      1.8362    
1
1
                            STRESS PERIOD NO.   24, LENGTH =   2630000.    
                            -----------------------------------------------

                              NUMBER OF TIME STEPS =    30

                               MULTIPLIER FOR DELT =     1.000

                            INITIAL TIME STEP SIZE =   87666.66    

 REUSING NON-PARAMETER GHB CELLS FROM LAST STRESS PERIOD

      2 GHB CELLS

 REUSING STREAM SEGMENT DATA FROM LAST STRESS PERIOD



            AREAL INFILTRATION RATE
 READING ON UNIT   19 WITH FORMAT: (FREE)              

            1           2           3           4           5           6           7           8           9          10
 ........................................................................................................................
   1   1.0000E-10  2.0000E-10   0.000       0.000       0.000       0.000       0.000       0.000       0.000       0.000    
   2   2.0000E-10  1.0000E-10  2.0000E-10   0.000       0.000      8.0000E-10  8.0000E-10  5.0000E-10   0.000       0.000    
   3    0.000      5.0000E-10  1.0000E-10  1.0000E-10  8.0000E-10  8.0000E-10  5.0000E-10  5.0000E-10   0.000       0.000    
   4   8.0000E-10  5.0000E-10  1.0000E-10  1.0000E-10  1.0000E-10  1.0000E-10  1.0000E-10  1.0000E-10  2.0000E-10   0.000    
   5   8.0000E-10  5.0000E-10  1.0000E-10  1.0000E-10  1.0000E-10  1.0000E-10  1.0000E-10  1.0000E-10  1.0000E-10  1.0000E-10
   6   8.0000E-10  5.0000E-10  5.0000E-10  2.0000E-10  2.0000E-10  1.0000E-10  1.0000E-10  1.0000E-10  1.0000E-10  5.0000E-10
   7   8.0000E-10  5.0000E-10  5.0000E-10  2.0000E-10  2.0000E-10  1.0000E-10  1.0000E-10  2.0000E-10  2.0000E-10   0.000    
   8    0.000      5.0000E-10  5.0000E-10  2.0000E-10  2.0000E-10  1.0000E-10  1.0000E-10  2.0000E-10  5.0000E-10   0.000    
   9    0.000      5.0000E-10  5.0000E-10  2.0000E-10  2.0000E-10  1.0000E-10  1.0000E-10  2.0000E-10  5.0000E-10   0.000    
  10    0.000      5.0000E-10  5.0000E-10  2.0000E-10  2.0000E-10  1.0000E-10  1.0000E-10  2.0000E-10  5.0000E-10  8.0000E-10
  11    0.000      1.0000E-10  1.0000E-10  1.0000E-10  1.0000E-10  1.0000E-10  1.0000E-10  2.0000E-10  5.0000E-10   0.000    
  12   1.0000E-10  1.0000E-10  1.0000E-10  1.0000E-10  1.0000E-10  1.0000E-10  1.0000E-10  1.0000E-10  2.0000E-10   0.000    
  13   1.0000E-10  1.0000E-10  2.0000E-10  2.0000E-10  2.0000E-10  2.0000E-10  2.0000E-10  1.0000E-10  1.0000E-10   0.000    
  14    0.000      2.0000E-10  5.0000E-10  5.0000E-10  5.0000E-10  5.0000E-10  5.0000E-10  2.0000E-10  1.0000E-10   0.000    
  15    0.000       0.000      8.0000E-10  8.0000E-10  8.0000E-10  8.0000E-10   0.000       0.000       0.000       0.000    

                  ET RATE =  5.000000E-10

 USING ET EXTINCTION DEPTH FROM PREVIOUS STRESS PERIOD. CURRENT PERIOD IS:      24

 USING EXTINCTION WATER CONTENT FROM PREVIOUS STRESS PERIOD. CURRENT PERIOD IS:      24

 USING AIR ENTRY PRESSURE FROM PREVIOUS STRESS PERIOD. CURRENT PERIOD IS:      24

 USING ROOT PRESSURE HEAD FROM PREVIOUS STRESS PERIOD. CURRENT PERIOD IS:      24

 USING ROOT ACTIVITY FROM PREVIOUS STRESS PERIOD. CURRENT PERIOD IS:      24

 PROCESSING AG STRESS PERIOD DATA

 READING AG STRESS PERIOD DATA

 READING IRRIGATION SEGMENT

 READING IRRIGATION WELL

 READING SUPPLEMENTAL WELL

 END PROCESSING AG STRESS PERIOD DATA OPTIONS
 
 SOLVING FOR HEAD 
                                                   Max.-Head-Change                         Max.-Flux-Residual
  Residual-Control   Outer-Iter.   Inner-Iter.     Column Row Layer    Maximum-Head-Change  Column Row Layer    Maximum-Flux-Residual          L2-NORM 
          0                 1           2             4    7     1       0.4633896675E-01       4    7    1         0.2439200389E+01      0.5220951342E+01
          0                 2           2             4    7     1      -0.4507549295E-02       4    7    1        -0.2439221884E+00      0.5220954470E+00
          0                 3           2             4    7     1       0.3069470893E-03       4    7    1         0.1707454023E-01      0.3654668897E-01
          0                 4           1             4    7     1      -0.1221371328E-04       4    7    1        -0.6983497669E-03      0.1494761699E-02

    ------------------------------------------------
       NWT REQUIRED            4 OUTER ITERATIONS 
       AND A TOTAL OF          7 INNER ITERATIONS.
    ------------------------------------------------

 NO OUTPUT CONTROL FOR STRESS PERIOD   24   TIME STEP    1
 
 SOLVING FOR HEAD 
                                                   Max.-Head-Change                         Max.-Flux-Residual
  Residual-Control   Outer-Iter.   Inner-Iter.     Column Row Layer    Maximum-Head-Change  Column Row Layer    Maximum-Flux-Residual          L2-NORM 
          0                 1           2             4    7     1       0.4573253652E-01       4    7    1         0.2407705599E+01      0.5125293782E+01
          0                 2           2             4    7     1      -0.4448560249E-02       4    7    1        -0.2407727139E+00      0.5125294841E+00
          0                 3           2             4    7     1       0.3029301530E-03       4    7    1         0.1685407688E-01      0.3587704747E-01
          0                 4           1             4    7     1      -0.1205387542E-04       4    7    1        -0.6893327927E-03      0.1467368771E-02

    ------------------------------------------------
       NWT REQUIRED            4 OUTER ITERATIONS 
       AND A TOTAL OF          7 INNER ITERATIONS.
    ------------------------------------------------

 NO OUTPUT CONTROL FOR STRESS PERIOD   24   TIME STEP    2
 
 SOLVING FOR HEAD 
                                                   Max.-Head-Change                         Max.-Flux-Residual
  Residual-Control   Outer-Iter.   Inner-Iter.     Column Row Layer    Maximum-Head-Change  Column Row Layer    Maximum-Flux-Residual          L2-NORM 
          0                 1           2             4    7     1       0.4512652893E-01       4    7    1         0.2376189817E+01      0.5031914254E+01
          0                 2           2             4    7     1      -0.4389612226E-02       4    7    1        -0.2376211343E+00      0.5031916259E+00
          0                 3           2             4    7     1       0.2989160112E-03       4    7    1         0.1663346620E-01      0.3522339561E-01
          0                 4           1             4    7     1      -0.1189414911E-04       4    7    1        -0.6803098129E-03      0.1440635581E-02

    ------------------------------------------------
       NWT REQUIRED            4 OUTER ITERATIONS 
       AND A TOTAL OF          7 INNER ITERATIONS.
    ------------------------------------------------

 NO OUTPUT CONTROL FOR STRESS PERIOD   24   TIME STEP    3
 
 SOLVING FOR HEAD 
                                                   Max.-Head-Change                         Max.-Flux-Residual
  Residual-Control   Outer-Iter.   Inner-Iter.     Column Row Layer    Maximum-Head-Change  Column Row Layer    Maximum-Flux-Residual          L2-NORM 
          0                 1           2             4    7     1       0.4452183267E-01       4    7    1         0.2344703262E+01      0.4941499006E+01
          0                 2           2             4    7     1      -0.4330791684E-02       4    7    1        -0.2344724723E+00      0.4941501738E+00
          0                 3           2             4    7     1       0.2949105512E-03       4    7    1         0.1641305984E-01      0.3459050397E-01
          0                 4           1             4    7     1      -0.1173476819E-04       4    7    1        -0.6712951786E-03      0.1414757776E-02

    ------------------------------------------------
       NWT REQUIRED            4 OUTER ITERATIONS 
       AND A TOTAL OF          7 INNER ITERATIONS.
    ------------------------------------------------

 NO OUTPUT CONTROL FOR STRESS PERIOD   24   TIME STEP    4
 
 SOLVING FOR HEAD 
                                                   Max.-Head-Change                         Max.-Flux-Residual
  Residual-Control   Outer-Iter.   Inner-Iter.     Column Row Layer    Maximum-Head-Change  Column Row Layer    Maximum-Flux-Residual          L2-NORM 
          0                 1           2             4    7     1       0.4391913098E-01       4    7    1         0.2313284684E+01      0.4853896669E+01
          0                 2           2             4    7     1      -0.4272165091E-02       4    7    1        -0.2313306034E+00      0.4853900185E+00
          0                 3           2             4    7     1       0.2909182994E-03       4    7    1         0.1619312904E-01      0.3397728280E-01
          0                 4           1             4    7     1      -0.1157591259E-04       4    7    1        -0.6622999947E-03      0.1389672282E-02

    ------------------------------------------------
       NWT REQUIRED            4 OUTER ITERATIONS 
       AND A TOTAL OF          7 INNER ITERATIONS.
    ------------------------------------------------

 NO OUTPUT CONTROL FOR STRESS PERIOD   24   TIME STEP    5
 
 SOLVING FOR HEAD 
                                                   Max.-Head-Change                         Max.-Flux-Residual
  Residual-Control   Outer-Iter.   Inner-Iter.     Column Row Layer    Maximum-Head-Change  Column Row Layer    Maximum-Flux-Residual          L2-NORM 
          0                 1           2             4    7     1       0.4331904909E-01       4    7    1         0.2281969507E+01      0.4768985037E+01
          0                 2           2             4    7     1      -0.4213793273E-02       4    7    1        -0.2281990705E+00      0.4768988993E+00
          0                 3           2             4    7     1       0.2869433966E-03       4    7    1         0.1597392178E-01      0.3338290479E-01
          0                 4           1             4    7     1      -0.1141774742E-04       4    7    1        -0.6533344017E-03      0.1365362027E-02

    ------------------------------------------------
       NWT REQUIRED            4 OUTER ITERATIONS 
       AND A TOTAL OF          7 INNER ITERATIONS.
    ------------------------------------------------

 NO OUTPUT CONTROL FOR STRESS PERIOD   24   TIME STEP    6
 
 SOLVING FOR HEAD 
                                                   Max.-Head-Change                         Max.-Flux-Residual
  Residual-Control   Outer-Iter.   Inner-Iter.     Column Row Layer    Maximum-Head-Change  Column Row Layer    Maximum-Flux-Residual          L2-NORM 
          0                 1           2             4    7     1       0.4272215161E-01       4    7    1         0.2250790150E+01      0.4686621963E+01
          0                 2           2             4    7     1      -0.4155731157E-02       4    7    1        -0.2250811161E+00      0.4686626431E+00
          0                 3           2             4    7     1       0.2829895844E-03       4    7    1         0.1575566505E-01      0.3280636036E-01
          0                 4           1             4    7     1      -0.1126042175E-04       4    7    1        -0.6444076846E-03      0.1341774600E-02

    ------------------------------------------------
       NWT REQUIRED            4 OUTER ITERATIONS 
       AND A TOTAL OF          7 INNER ITERATIONS.
    ------------------------------------------------

 NO OUTPUT CONTROL FOR STRESS PERIOD   24   TIME STEP    7
 
 SOLVING FOR HEAD 
                                                   Max.-Head-Change                         Max.-Flux-Residual
  Residual-Control   Outer-Iter.   Inner-Iter.     Column Row Layer    Maximum-Head-Change  Column Row Layer    Maximum-Flux-Residual          L2-NORM 
          0                 1           2             4    7     1       0.4212909129E-01       4    7    1         0.2219783219E+01      0.4606701778E+01
          0                 2           2             4    7     1      -0.4098042246E-02       4    7    1        -0.2219804011E+00      0.4606706712E+00
          0                 3           2             4    7     1       0.2790611864E-03       4    7    1         0.1553861511E-01      0.3224693075E-01
          0                 4           1             4    7     1      -0.1110410702E-04       4    7    1        -0.6355303299E-03      0.1318900439E-02

    ------------------------------------------------
       NWT REQUIRED            4 OUTER ITERATIONS 
       AND A TOTAL OF          7 INNER ITERATIONS.
    ------------------------------------------------

 NO OUTPUT CONTROL FOR STRESS PERIOD   24   TIME STEP    8
 
 SOLVING FOR HEAD 
                                                   Max.-Head-Change                         Max.-Flux-Residual
  Residual-Control   Outer-Iter.   Inner-Iter.     Column Row Layer    Maximum-Head-Change  Column Row Layer    Maximum-Flux-Residual          L2-NORM 
          0                 1           2             4    7     1       0.4154005632E-01       4    7    1         0.2188960561E+01      0.4529102570E+01
          0                 2           2             4    7     1      -0.4040744852E-02       4    7    1        -0.2188981107E+00      0.4529107793E+00
          0                 3           2             4    7     1       0.2751594500E-03       4    7    1         0.1532285494E-01      0.3170373744E-01
          0                 4           1             4    7     1      -0.1094885319E-04       4    7    1        -0.6267057231E-03      0.1296682787E-02

    ------------------------------------------------
       NWT REQUIRED            4 OUTER ITERATIONS 
       AND A TOTAL OF          7 INNER ITERATIONS.
    ------------------------------------------------

 NO OUTPUT CONTROL FOR STRESS PERIOD   24   TIME STEP    9
 
 SOLVING FOR HEAD 
                                                   Max.-Head-Change                         Max.-Flux-Residual
  Residual-Control   Outer-Iter.   Inner-Iter.     Column Row Layer    Maximum-Head-Change  Column Row Layer    Maximum-Flux-Residual          L2-NORM 
          0                 1           2             4    7     1       0.4095574097E-01       4    7    1         0.2158361266E+01      0.4453725260E+01
          0                 2           2             4    7     1      -0.3983906512E-02       4    7    1        -0.2158381543E+00      0.4453730881E+00
          0                 3           2             4    7     1       0.2712889738E-03       4    7    1         0.1510865815E-01      0.3117610186E-01
          0                 4           1             4    7     1      -0.1079484332E-04       4    7    1        -0.6179450752E-03      0.1275104840E-02

    ------------------------------------------------
       NWT REQUIRED            4 OUTER ITERATIONS 
       AND A TOTAL OF          7 INNER ITERATIONS.
    ------------------------------------------------

 NO OUTPUT CONTROL FOR STRESS PERIOD   24   TIME STEP   10
 
 SOLVING FOR HEAD 
                                                   Max.-Head-Change                         Max.-Flux-Residual
  Residual-Control   Outer-Iter.   Inner-Iter.     Column Row Layer    Maximum-Head-Change  Column Row Layer    Maximum-Flux-Residual          L2-NORM 
          0                 1           2             4    7     1       0.4037637913E-01       4    7    1         0.2127999331E+01      0.4380470654E+01
          0                 2           2             4    7     1      -0.3927549983E-02       4    7    1        -0.2128019318E+00      0.4380476349E+00
          0                 3           2             4    7     1       0.2674513069E-03       4    7    1         0.1489612275E-01      0.3066332406E-01
          0                 4           1             4    7     1      -0.1064213876E-04       4    7    1        -0.6092523472E-03      0.1254130461E-02

    ------------------------------------------------
       NWT REQUIRED            4 OUTER ITERATIONS 
       AND A TOTAL OF          7 INNER ITERATIONS.
    ------------------------------------------------

 NO OUTPUT CONTROL FOR STRESS PERIOD   24   TIME STEP   11
 
 SOLVING FOR HEAD 
                                                   Max.-Head-Change                         Max.-Flux-Residual
  Residual-Control   Outer-Iter.   Inner-Iter.     Column Row Layer    Maximum-Head-Change  Column Row Layer    Maximum-Flux-Residual          L2-NORM 
          0                 1           2             4    7     1       0.3980230789E-01       4    7    1         0.2097894216E+01      0.4309245100E+01
          0                 2           2             4    7     1      -0.3871708060E-02       4    7    1        -0.2097913896E+00      0.4309250994E+00
          0                 3           2             4    7     1       0.2636486831E-03       4    7    1         0.1468538499E-01      0.3016474325E-01
          0                 4           1             4    7     1      -0.1049082874E-04       4    7    1        -0.6006331562E-03      0.1233739233E-02

    ------------------------------------------------
       NWT REQUIRED            4 OUTER ITERATIONS 
       AND A TOTAL OF          7 INNER ITERATIONS.
    ------------------------------------------------

 NO OUTPUT CONTROL FOR STRESS PERIOD   24   TIME STEP   12
 
 SOLVING FOR HEAD 
                                                   Max.-Head-Change                         Max.-Flux-Residual
  Residual-Control   Outer-Iter.   Inner-Iter.     Column Row Layer    Maximum-Head-Change  Column Row Layer    Maximum-Flux-Residual          L2-NORM 
          0                 1           2             4    7     1       0.3923396498E-01       4    7    1         0.2068070736E+01      0.4239967456E+01
          0                 2           2             4    7     1      -0.3816423325E-02       4    7    1        -0.2068090094E+00      0.4239973438E+00
          0                 3           2             4    7     1       0.2598840027E-03       4    7    1         0.1447661860E-01      0.2967979886E-01
          0                 4           1             4    7     1      -0.1034102885E-04       4    7    1        -0.5920946121E-03      0.1213903858E-02

    ------------------------------------------------
       NWT REQUIRED            4 OUTER ITERATIONS 
       AND A TOTAL OF          7 INNER ITERATIONS.
    ------------------------------------------------

 NO OUTPUT CONTROL FOR STRESS PERIOD   24   TIME STEP   13
 
 SOLVING FOR HEAD 
                                                   Max.-Head-Change                         Max.-Flux-Residual
  Residual-Control   Outer-Iter.   Inner-Iter.     Column Row Layer    Maximum-Head-Change  Column Row Layer    Maximum-Flux-Residual          L2-NORM 
          0                 1           2             4    7     1       0.3867147073E-01       4    7    1         0.2038536915E+01      0.4172545586E+01
          0                 2           2             4    7     1      -0.3761707489E-02       4    7    1        -0.2038555939E+00      0.4172549688E+00
          0                 3           2             4    7     1       0.2561580617E-03       4    7    1         0.1426987975E-01      0.2920793785E-01
          0                 4           1             4    7     1      -0.1019277006E-04       4    7    1        -0.5836389739E-03      0.1194618639E-02

    ------------------------------------------------
       NWT REQUIRED            4 OUTER ITERATIONS 
       AND A TOTAL OF          7 INNER ITERATIONS.
    ------------------------------------------------

 NO OUTPUT CONTROL FOR STRESS PERIOD   24   TIME STEP   14
 
 SOLVING FOR HEAD 
                                                   Max.-Head-Change                         Max.-Flux-Residual
  Residual-Control   Outer-Iter.   Inner-Iter.     Column Row Layer    Maximum-Head-Change  Column Row Layer    Maximum-Flux-Residual          L2-NORM 
          0                 1           2             4    7     1       0.3811519771E-01       4    7    1         0.2009313665E+01      0.4106919400E+01
          0                 2           2             4    7     1      -0.3707596792E-02       4    7    1        -0.2009332346E+00      0.4106925497E+00
          0                 3           2             4    7     1       0.2524733288E-03       4    7    1         0.1406531482E-01      0.2874846277E-01
          0                 4           1             4    7     1      -0.1004615126E-04       4    7    1        -0.5752722655E-03      0.1175809681E-02

    ------------------------------------------------
       NWT REQUIRED            4 OUTER ITERATIONS 
       AND A TOTAL OF          7 INNER ITERATIONS.
    ------------------------------------------------

 NO OUTPUT CONTROL FOR STRESS PERIOD   24   TIME STEP   15
 
 SOLVING FOR HEAD 
                                                   Max.-Head-Change                         Max.-Flux-Residual
  Residual-Control   Outer-Iter.   Inner-Iter.     Column Row Layer    Maximum-Head-Change  Column Row Layer    Maximum-Flux-Residual          L2-NORM 
          0                 1           2             4    7     1       0.3756534195E-01       4    7    1         0.1980412967E+01      0.4043004668E+01
          0                 2           2             4    7     1      -0.3654110308E-02       4    7    1        -0.1980431296E+00      0.4043010796E+00
          0                 3           2             4    7     1       0.2488311024E-03       4    7    1         0.1386300771E-01      0.2830106134E-01
          0                 4           1             4    7     1      -0.9901223689E-05       4    7    1        -0.5669978966E-03      0.1157514193E-02

    ------------------------------------------------
       NWT REQUIRED            4 OUTER ITERATIONS 
       AND A TOTAL OF          7 INNER ITERATIONS.
    ------------------------------------------------

 NO OUTPUT CONTROL FOR STRESS PERIOD   24   TIME STEP   16
 
 SOLVING FOR HEAD 
                                                   Max.-Head-Change                         Max.-Flux-Residual
  Residual-Control   Outer-Iter.   Inner-Iter.     Column Row Layer    Maximum-Head-Change  Column Row Layer    Maximum-Flux-Residual          L2-NORM 
          0                 1           2             4    7     1       0.3702207665E-01       4    7    1         0.1951844985E+01      0.3980744572E+01
          0                 2           2             4    7     1      -0.3601261251E-02       4    7    1        -0.1951862957E+00      0.3979232094E+00
          0                 3           2             4    7     1       0.2452322824E-03       4    7    1         0.1366302958E-01      0.2785460029E-01
          0                 4           1             4    7     1      -0.9758023374E-05       4    7    1        -0.5588187769E-03      0.1139239932E-02

    ------------------------------------------------
       NWT REQUIRED            4 OUTER ITERATIONS 
       AND A TOTAL OF          7 INNER ITERATIONS.
    ------------------------------------------------

 NO OUTPUT CONTROL FOR STRESS PERIOD   24   TIME STEP   17
 
 SOLVING FOR HEAD 
                                                   Max.-Head-Change                         Max.-Flux-Residual
  Residual-Control   Outer-Iter.   Inner-Iter.     Column Row Layer    Maximum-Head-Change  Column Row Layer    Maximum-Flux-Residual          L2-NORM 
          0                 1           2             4    7     1       0.3648542933E-01       4    7    1         0.1923611555E+01      0.3920177644E+01
          0                 2           2             4    7     1      -0.3549063212E-02       4    7    1        -0.1923629165E+00      0.3920185726E+00
          0                 3           2             4    7     1       0.2416777950E-03       4    7    1         0.1346539332E-01      0.2744129789E-01
          0                 4           1             4    7     1      -0.9616586930E-05       4    7    1        -0.5507354356E-03      0.1122367144E-02

    ------------------------------------------------
       NWT REQUIRED            4 OUTER ITERATIONS 
       AND A TOTAL OF          7 INNER ITERATIONS.
    ------------------------------------------------

 NO OUTPUT CONTROL FOR STRESS PERIOD   24   TIME STEP   18
 
 SOLVING FOR HEAD 
                                                   Max.-Head-Change                         Max.-Flux-Residual
  Residual-Control   Outer-Iter.   Inner-Iter.     Column Row Layer    Maximum-Head-Change  Column Row Layer    Maximum-Flux-Residual          L2-NORM 
          0                 1           2             4    7     1       0.3595579793E-01       4    7    1         0.1895735539E+01      0.3861289874E+01
          0                 2           2             4    7     1      -0.3497543985E-02       4    7    1        -0.1895752783E+00      0.3861297780E+00
          0                 3           2             4    7     1       0.2381695315E-03       4    7    1         0.1327025889E-01      0.2703090041E-01
          0                 4           1             4    7     1      -0.9476989418E-05       4    7    1        -0.5427544195E-03      0.1149812971E-02

    ------------------------------------------------
       NWT REQUIRED            4 OUTER ITERATIONS 
       AND A TOTAL OF          7 INNER ITERATIONS.
    ------------------------------------------------

 NO OUTPUT CONTROL FOR STRESS PERIOD   24   TIME STEP   19
 
 SOLVING FOR HEAD 
                                                   Max.-Head-Change                         Max.-Flux-Residual
  Residual-Control   Outer-Iter.   Inner-Iter.     Column Row Layer    Maximum-Head-Change  Column Row Layer    Maximum-Flux-Residual          L2-NORM 
          0                 1           2             4    7     1       0.3543301052E-01       4    7    1         0.1868208796E+01      0.3803840818E+01
          0                 2           2             4    7     1      -0.3446690489E-02       4    7    1        -0.1868225672E+00      0.3803848640E+00
          0                 3           2             4    7     1       0.2347066023E-03       4    7    1         0.1307756939E-01      0.2662692182E-01
          0                 4           1             4    7     1      -0.9339196417E-05       4    7    1        -0.5348734010E-03      0.1089041226E-02

    ------------------------------------------------
       NWT REQUIRED            4 OUTER ITERATIONS 
       AND A TOTAL OF          7 INNER ITERATIONS.
    ------------------------------------------------

 NO OUTPUT CONTROL FOR STRESS PERIOD   24   TIME STEP   20
 
 SOLVING FOR HEAD 
                                                   Max.-Head-Change                         Max.-Flux-Residual
  Residual-Control   Outer-Iter.   Inner-Iter.     Column Row Layer    Maximum-Head-Change  Column Row Layer    Maximum-Flux-Residual          L2-NORM 
          0                 1           2             4    7     1       0.3491743440E-01       4    7    1         0.1841051575E+01      0.3747795131E+01
          0                 2           2             4    7     1      -0.3396538453E-02       4    7    1        -0.1841068084E+00      0.3747802629E+00
          0                 3           2             4    7     1       0.2312914400E-03       4    7    1         0.1288746653E-01      0.2623458100E-01
          0                 4           1             4    7     1      -0.9203303827E-05       4    7    1        -0.5270981915E-03      0.1072981018E-02

    ------------------------------------------------
       NWT REQUIRED            4 OUTER ITERATIONS 
       AND A TOTAL OF          7 INNER ITERATIONS.
    ------------------------------------------------

 NO OUTPUT CONTROL FOR STRESS PERIOD   24   TIME STEP   21
 
 SOLVING FOR HEAD 
                                                   Max.-Head-Change                         Max.-Flux-Residual
  Residual-Control   Outer-Iter.   Inner-Iter.     Column Row Layer    Maximum-Head-Change  Column Row Layer    Maximum-Flux-Residual          L2-NORM 
          0                 1           2             4    7     1       0.3440899064E-01       4    7    1         0.1814260902E+01      0.3693085583E+01
          0                 2           2             4    7     1      -0.3347080203E-02       4    7    1        -0.1814277043E+00      0.3693093040E+00
          0                 3           2             4    7     1       0.2279235218E-03       4    7    1         0.1269992951E-01      0.2585163735E-01
          0                 4           1             4    7     1      -0.9069291616E-05       4    7    1        -0.5194279208E-03      0.1057330687E-02

    ------------------------------------------------
       NWT REQUIRED            4 OUTER ITERATIONS 
       AND A TOTAL OF          7 INNER ITERATIONS.
    ------------------------------------------------

 NO OUTPUT CONTROL FOR STRESS PERIOD   24   TIME STEP   22
 
 SOLVING FOR HEAD 
                                                   Max.-Head-Change                         Max.-Flux-Residual
  Residual-Control   Outer-Iter.   Inner-Iter.     Column Row Layer    Maximum-Head-Change  Column Row Layer    Maximum-Flux-Residual          L2-NORM 
          0                 1           2             4    7     1       0.3390773034E-01       4    7    1         0.1787840023E+01      0.3639676698E+01
          0                 2           2             4    7     1      -0.3298320709E-02       4    7    1        -0.1787855797E+00      0.3639683783E+00
          0                 3           2             4    7     1       0.2246031865E-03       4    7    1         0.1251498107E-01      0.2547776025E-01
          0                 4           1             4    7     1      -0.8937171988E-05       4    7    1        -0.5118635115E-03      0.1042039151E-02

    ------------------------------------------------
       NWT REQUIRED            4 OUTER ITERATIONS 
       AND A TOTAL OF          7 INNER ITERATIONS.
    ------------------------------------------------

 NO OUTPUT CONTROL FOR STRESS PERIOD   24   TIME STEP   23
 
 SOLVING FOR HEAD 
                                                   Max.-Head-Change                         Max.-Flux-Residual
  Residual-Control   Outer-Iter.   Inner-Iter.     Column Row Layer    Maximum-Head-Change  Column Row Layer    Maximum-Flux-Residual          L2-NORM 
          0                 1           2             4    7     1       0.3341382156E-01       4    7    1         0.1761798931E+01      0.3587518376E+01
          0                 2           2             4    7     1      -0.3250276376E-02       4    7    1        -0.1761814342E+00      0.3587526313E+00
          0                 3           2             4    7     1       0.2213315484E-03       4    7    1         0.1233269114E-01      0.2511266371E-01
          0                 4           1             4    7     1      -0.8806990648E-05       4    7    1        -0.5044078391E-03      0.1027108242E-02

    ------------------------------------------------
       NWT REQUIRED            4 OUTER ITERATIONS 
       AND A TOTAL OF          7 INNER ITERATIONS.
    ------------------------------------------------

 NO OUTPUT CONTROL FOR STRESS PERIOD   24   TIME STEP   24
 
 SOLVING FOR HEAD 
                                                   Max.-Head-Change                         Max.-Flux-Residual
  Residual-Control   Outer-Iter.   Inner-Iter.     Column Row Layer    Maximum-Head-Change  Column Row Layer    Maximum-Flux-Residual          L2-NORM 
          0                 1           2             4    7     1       0.3292727550E-01       4    7    1         0.1736138997E+01      0.3536571329E+01
          0                 2           2             4    7     1      -0.3202948327E-02       4    7    1        -0.1736154046E+00      0.3536581168E+00
          0                 3           2             4    7     1       0.2181086888E-03       4    7    1         0.1215306933E-01      0.2475604679E-01
          0                 4           1             4    7     1      -0.8678749784E-05       4    7    1        -0.4970612911E-03      0.1012523589E-02

    ------------------------------------------------
       NWT REQUIRED            4 OUTER ITERATIONS 
       AND A TOTAL OF          7 INNER ITERATIONS.
    ------------------------------------------------

 NO OUTPUT CONTROL FOR STRESS PERIOD   24   TIME STEP   25
 
 SOLVING FOR HEAD 
                                                   Max.-Head-Change                         Max.-Flux-Residual
  Residual-Control   Outer-Iter.   Inner-Iter.     Column Row Layer    Maximum-Head-Change  Column Row Layer    Maximum-Flux-Residual          L2-NORM 
          0                 1           2             4    7     1       0.3244808994E-01       4    7    1         0.1710860798E+01      0.3486786994E+01
          0                 2           2             4    7     1      -0.3156336106E-02       4    7    1        -0.1710875490E+00      0.3486796421E+00
          0                 3           2             4    7     1       0.2149345745E-03       4    7    1         0.1197611969E-01      0.2440755240E-01
          0                 4           1             4    7     1      -0.8552448589E-05       4    7    1        -0.4898240391E-03      0.9982697084E-03

    ------------------------------------------------
       NWT REQUIRED            4 OUTER ITERATIONS 
       AND A TOTAL OF          7 INNER ITERATIONS.
    ------------------------------------------------

 NO OUTPUT CONTROL FOR STRESS PERIOD   24   TIME STEP   26
 
 SOLVING FOR HEAD 
                                                   Max.-Head-Change                         Max.-Flux-Residual
  Residual-Control   Outer-Iter.   Inner-Iter.     Column Row Layer    Maximum-Head-Change  Column Row Layer    Maximum-Flux-Residual          L2-NORM 
          0                 1           2             4    7     1       0.3197611822E-01       4    7    1         0.1685956888E+01      0.3438134234E+01
          0                 2           2             4    7     1      -0.3110425602E-02       4    7    1        -0.1685971227E+00      0.3438143260E+00
          0                 3           2             4    7     1       0.2118082450E-03       4    7    1         0.1180179013E-01      0.2406697882E-01
          0                 4           1             4    7     1      -0.8428049418E-05       4    7    1        -0.4826939610E-03      0.9843427174E-03

    ------------------------------------------------
       NWT REQUIRED            4 OUTER ITERATIONS 
       AND A TOTAL OF          7 INNER ITERATIONS.
    ------------------------------------------------

 NO OUTPUT CONTROL FOR STRESS PERIOD   24   TIME STEP   27
 
 SOLVING FOR HEAD 
                                                   Max.-Head-Change                         Max.-Flux-Residual
  Residual-Control   Outer-Iter.   Inner-Iter.     Column Row Layer    Maximum-Head-Change  Column Row Layer    Maximum-Flux-Residual          L2-NORM 
          0                 1           2             4    7     1       0.3151147803E-01       4    7    1         0.1661434343E+01      0.3390572788E+01
          0                 2           2             4    7     1      -0.3065228264E-02       4    7    1        -0.1661448334E+00      0.3390581404E+00
          0                 3           2             4    7     1       0.2087304786E-03       4    7    1         0.1163013012E-01      0.2373404673E-01
          0                 4           1             4    7     1      -0.8305581857E-05       4    7    1        -0.4756730416E-03      0.9707217203E-03

    ------------------------------------------------
       NWT REQUIRED            4 OUTER ITERATIONS 
       AND A TOTAL OF          7 INNER ITERATIONS.
    ------------------------------------------------

 NO OUTPUT CONTROL FOR STRESS PERIOD   24   TIME STEP   28
 
 SOLVING FOR HEAD 
                                                   Max.-Head-Change                         Max.-Flux-Residual
  Residual-Control   Outer-Iter.   Inner-Iter.     Column Row Layer    Maximum-Head-Change  Column Row Layer    Maximum-Flux-Residual          L2-NORM 
          0                 1           2             4    7     1       0.3105413471E-01       4    7    1         0.1637291923E+01      0.3344061856E+01
          0                 2           2             4    7     1      -0.3020740719E-02       4    7    1        -0.1637305569E+00      0.3344069405E+00
          0                 3           2             4    7     1       0.2057010470E-03       4    7    1         0.1146113103E-01      0.2340845710E-01
          0                 4           1             4    7     1      -0.8185038424E-05       4    7    1        -0.4687609883E-03      0.9574219589E-03

    ------------------------------------------------
       NWT REQUIRED            4 OUTER ITERATIONS 
       AND A TOTAL OF          7 INNER ITERATIONS.
    ------------------------------------------------

 NO OUTPUT CONTROL FOR STRESS PERIOD   24   TIME STEP   29
 
 SOLVING FOR HEAD 
                                                   Max.-Head-Change                         Max.-Flux-Residual
  Residual-Control   Outer-Iter.   Inner-Iter.     Column Row Layer    Maximum-Head-Change  Column Row Layer    Maximum-Flux-Residual          L2-NORM 
          0                 1           2             4    7     1       0.3060417887E-01       4    7    1         0.1613535174E+01      0.3298577490E+01
          0                 2           2             4    7     1      -0.2976971783E-02       4    7    1        -0.1613548483E+00      0.3298585311E+00
          0                 3           2             4    7     1       0.2027205492E-03       4    7    1         0.1129483166E-01      0.2309007299E-01
          0                 4           1             4    7     1      -0.8066441339E-05       4    7    1        -0.4619593162E-03      0.9443858249E-03

    ------------------------------------------------
       NWT REQUIRED            4 OUTER ITERATIONS 
       AND A TOTAL OF          7 INNER ITERATIONS.
    ------------------------------------------------

 NO OUTPUT CONTROL FOR STRESS PERIOD   24   TIME STEP   30



 STREAM LISTING     PERIOD     24   STEP       30

 LAYER ROW COL. STREAM  RCH.  FLOW INTO     FLOW TO   FLOW OUT OF   OVRLND.     DIRECT     STREAM       STREAM     STREAM     STREAM   STREAMBED  STREAMBED
                SEG.NO.  NO.  STRM. RCH.    AQUIFER    STRM. RCH.    RUNOFF     PRECIP       ET          HEAD       DEPTH      WIDTH   CONDCTNC.   GRADIENT

   1    1    1     1     1    1.5750E+01  1.9239E-01   1.5558E+01  0.000E+00  0.000E+00  0.000E+00  1.09407E+03  1.025E+00  1.062E+01  4.780E-02  1.342E+00
   1    2    2     1     2    1.5558E+01  2.9660E-01   1.5261E+01  0.000E+00  0.000E+00  0.000E+00  1.08908E+03  1.020E+00  1.054E+01  7.378E-02  1.340E+00
   1    3    3     1     3    1.5261E+01  2.5164E-01   1.5010E+01  0.000E+00  0.000E+00  0.000E+00  1.08343E+03  1.015E+00  1.045E+01  6.268E-02  1.338E+00
   1    3    4     1     4    1.5010E+01  2.3064E-01   1.4779E+01  0.000E+00  0.000E+00  0.000E+00  1.07842E+03  1.010E+00  1.036E+01  5.752E-02  1.337E+00
   1    4    5     2     1    1.2779E+01  2.9653E-01   1.2482E+01  0.000E+00  0.000E+00  0.000E+00  1.07274E+03  8.017E-01  1.200E+01  7.800E-02  1.267E+00
   1    5    6     2     2    1.2482E+01  2.2750E-01   1.2255E+01  0.000E+00  0.000E+00  0.000E+00  1.06730E+03  7.917E-01  1.200E+01  6.000E-02  1.264E+00
   1    6    6     2     3    1.2255E+01  2.2697E-01   1.2028E+01  0.000E+00  0.000E+00  0.000E+00  1.06258E+03  7.829E-01  1.200E+01  6.000E-02  1.261E+00
   1    7    6     2     4    1.2028E+01  2.2645E-01   1.1802E+01  0.000E+00  0.000E+00  0.000E+00  1.05785E+03  7.741E-01  1.200E+01  6.000E-02  1.258E+00
   1    8    6     2     5    1.1802E+01  2.2591E-01   1.1576E+01  0.000E+00  0.000E+00  0.000E+00  1.05312E+03  7.652E-01  1.200E+01  6.000E-02  1.255E+00
   1    3    5     3     1    2.0000E+00  2.8252E-01   1.7175E+00  0.000E+00  0.000E+00  0.000E+00  1.07555E+03  1.909E+00  9.636E+00  7.227E-02  1.955E+00
   1    3    6     3     2    1.7175E+00  2.4905E-01   1.4684E+00  0.000E+00  0.000E+00  0.000E+00  1.07264E+03  1.727E+00  8.909E+00  6.682E-02  1.864E+00
   1    3    7     3     3    1.4684E+00  1.9718E-01   1.2712E+00  0.000E+00  0.000E+00  0.000E+00  1.06987E+03  1.555E+00  8.218E+00  5.547E-02  1.777E+00
   1    4    8     3     4    1.2712E+00  2.2567E-01   1.0456E+00  0.000E+00  0.000E+00  0.000E+00  1.06682E+03  1.364E+00  7.455E+00  6.709E-02  1.682E+00
   1    5    8     3     5    1.0456E+00  1.5790E-01   8.8768E-01  0.000E+00  0.000E+00  0.000E+00  1.06362E+03  1.164E+00  6.655E+00  4.991E-02  1.582E+00
   1    6    8     3     6    8.8768E-01  5.5980E-02   8.3170E-01  0.000E+00  0.000E+00  0.000E+00  1.06158E+03  1.036E+00  6.145E+00  1.844E-02  1.518E+00
   1    5   10     4     1    1.0000E+01  9.0919E-02   9.9091E+00  0.000E+00  0.000E+00  0.000E+00  1.07836E+03  6.368E-01  1.000E+01  2.500E-02  1.212E+00
   1    5    9     4     2    9.9091E+00  1.8158E-01   9.7275E+00  0.000E+00  0.000E+00  0.000E+00  1.07154E+03  6.315E-01  1.000E+01  5.000E-02  1.211E+00
   1    6    8     4     3    9.7275E+00  1.2689E-01   9.6006E+00  0.000E+00  0.000E+00  0.000E+00  1.06381E+03  6.256E-01  1.000E+01  3.500E-02  1.209E+00
   1    6    8     5     1    1.0432E+01  2.2686E-01   1.0205E+01  0.000E+00  0.000E+00  0.000E+00  1.05868E+03  6.790E-01  1.542E+01  6.166E-02  1.226E+00
   1    7    7     5     2    1.0205E+01  2.7894E-01   9.9265E+00  0.000E+00  0.000E+00  0.000E+00  1.05417E+03  6.732E-01  1.519E+01  7.594E-02  1.224E+00
   1    8    7     5     3    9.9265E+00  1.9221E-01   9.7343E+00  0.000E+00  0.000E+00  0.000E+00  1.04992E+03  6.676E-01  1.497E+01  5.241E-02  1.223E+00
   1    8    6     5     4    9.7343E+00  1.3577E-01   9.5985E+00  0.000E+00  0.000E+00  0.000E+00  1.04691E+03  6.637E-01  1.482E+01  3.706E-02  1.221E+00
   1    9    6     6     1    2.1174E+01  2.4608E-01   2.0928E+01  0.000E+00  0.000E+00  0.000E+00  1.04383E+03  1.101E+00  1.200E+01  6.000E-02  1.367E+00
   1   10    7     6     2    2.0928E+01  2.4562E-01   2.0682E+01  0.000E+00  0.000E+00  0.000E+00  1.03928E+03  1.094E+00  1.200E+01  6.000E-02  1.365E+00
   1   11    7     6     3    2.0682E+01  2.4515E-01   2.0437E+01  0.000E+00  0.000E+00  0.000E+00  1.03472E+03  1.086E+00  1.200E+01  6.000E-02  1.362E+00
   1   12    7     6     4    2.0437E+01  2.4469E-01   2.0193E+01  0.000E+00  0.000E+00  0.000E+00  1.03017E+03  1.078E+00  1.200E+01  6.000E-02  1.359E+00
   1   13    7     6     5    2.0193E+01 -1.9476E-02   2.0212E+01  0.000E+00  0.000E+00  0.000E+00  1.02698E+03  1.075E+00  1.200E+01  2.400E-01 -2.705E-02
   1   14    9     7     1    1.5000E+02  1.3382E+00   1.4866E+02  0.000E+00  0.000E+00  0.000E+00  1.03987E+03  2.288E+00  5.529E+01  5.593E-01  7.975E-01
   1   13    8     7     2    1.4866E+02  1.8369E+00   1.4682E+02  0.000E+00  0.000E+00  0.000E+00  1.03478E+03  2.279E+00  5.526E+01  6.148E-01  9.960E-01
   1   13    7     7     3    1.4682E+02  1.4660E+00   1.4536E+02  0.000E+00  0.000E+00  0.000E+00  1.02969E+03  2.270E+00  5.522E+01  5.585E-01  8.750E-01
   1   13    6     8     1    1.6557E+02  8.9218E-01   1.6468E+02  0.000E+00  0.000E+00  0.000E+00  1.02480E+03  2.920E+00  4.234E+01  4.315E-01  6.892E-01
   1   13    5     8     2    1.6468E+02  1.5153E-01   1.6453E+02  0.000E+00  0.000E+00  0.000E+00  1.01854E+03  2.917E+00  4.229E+01  4.310E-01  1.172E-01
   1   13    4     8     3    1.6453E+02 -2.5125E+00   1.6704E+02  0.000E+00  0.000E+00  0.000E+00  1.01230E+03  2.925E+00  4.241E+01  4.321E+00 -1.938E-01
   1   13    3     8     4    1.6704E+02 -3.6837E+00   1.7072E+02  0.000E+00  0.000E+00  0.000E+00  1.00607E+03  2.945E+00  4.270E+01  4.351E+00 -2.822E-01
   1   13    2     8     5    1.7072E+02 -2.5832E+00   1.7331E+02  0.000E+00  0.000E+00  0.000E+00  9.99840E+02  2.965E+00  4.300E+01  4.381E+00 -1.965E-01
   1   13    1     8     6    1.7331E+02 -1.9791E+00   1.7529E+02  0.000E+00  0.000E+00  0.000E+00  9.94855E+02  2.980E+00  4.321E+01  2.642E+00 -2.497E-01
   1    8    6     9     1    0.0000E+00  0.0000E+00   0.0000E+00  0.000E+00  0.000E+00  0.000E+00  1.07875E+03  0.000E+00  4.000E+00  0.000E+00  1.000E+00
   1    8    5     9     2    0.0000E+00  0.0000E+00   0.0000E+00  0.000E+00  0.000E+00  0.000E+00  1.07825E+03  0.000E+00  4.000E+00  0.000E+00  1.000E+00





UNSATURATED ZONE PACKAGE VOLUMETRIC BUDGET FOR  TIME STEP    30 STRESS PERIOD   24
  ------------------------------------------------------------------------------



     CUMULATIVE VOLUMES      L**3       RATES FOR THIS TIME STEP      L**3/T
     ------------------                 ------------------------

           IN:                                      IN:
           ---                                      ---
        INFILTRATION =  1027584977.2516          INFILTRATION =           0.8475

          OUT:                                     OUT:
          ----                                     ----
              UZF ET =   858827205.6564                UZF ET =           0.7500
        UZF RECHARGE =       73224.0000          UZF RECHARGE =       0.0000E+00

            IN - OUT =   168684547.5953              IN - OUT =       9.7500E-02

          STORAGE:                                 STORAGE:
          --------                                 --------
      STORAGE CHANGE =   168804750.2541        STORAGE CHANGE =       9.7500E-02

 PERCENT DISCREPANCY IS DIFFERENCE BETWEEN IN-OUT MINUS CHANGE IN STORAGE
 DIVIDED BY THE AVERAGE OF IN AND OUT TIMES 100

 PERCENT DISCREPANCY =          -0.00     PERCENT DISCREPANCY =           0.00






1
  VOLUMETRIC BUDGET FOR AGRICULTURAL FIELDS AT  END OF TIME STEP   30, STRESS PERIOD  24
  ------------------------------------------------------------------------------

     CUMULATIVE VOLUMES      L**3       RATES FOR THIS TIME STEP      L**3/T
     ------------------                 ------------------------

           IN:                                      IN:
           ---                                      ---
           AG WELLS      =   363470336.0000             AG WELLS      =           0.0000
      DIVERSION SEGMENTS =   612812416.0000        DIVERSION SEGMENTS =           0.0000
           GW IRRIGATION =           0.0000             GW IRRIGATION =           0.0000
           SW IRRIGATION =           0.0000             SW IRRIGATION =           0.0000
        SYSTEM LOSSES GW =           0.0000          SYSTEM LOSSES GW =           0.0000
        SYSTEM LOSSES SW =           0.0000          SYSTEM LOSSES SW =           0.0000

                TOTAL IN =   976282752.0000                  TOTAL IN =           0.0000

          OUT:                                     OUT:
          ----                                     ----
           AG WELLS      =           0.0000             AG WELLS      =           0.0000
      DIVERSION SEGMENTS =           0.0000        DIVERSION SEGMENTS =           0.0000
           GW IRRIGATION =   363470336.0000             GW IRRIGATION =           0.0000
           SW IRRIGATION =   612825280.0000             SW IRRIGATION =           0.0000
        SYSTEM LOSSES GW =           0.0000          SYSTEM LOSSES GW =           0.0000
        SYSTEM LOSSES SW =           0.0000          SYSTEM LOSSES SW =           0.0000

               TOTAL OUT =   976295616.0000                 TOTAL OUT =           0.0000

                IN - OUT =      -12864.0000                  IN - OUT =           0.0000

     PERCENT DISCREPANCY =          -0.00         PERCENT DISCREPANCY =           0.00



1
  VOLUMETRIC BUDGET FOR ENTIRE MODEL AT END OF TIME STEP   30, STRESS PERIOD  24
  ------------------------------------------------------------------------------

     CUMULATIVE VOLUMES      L**3       RATES FOR THIS TIME STEP      L**3/T
     ------------------                 ------------------------

           IN:                                      IN:
           ---                                      ---
             STORAGE     =   556405632.0000               STORAGE     =           8.1574
       CONSTANT HEAD     =           0.0000         CONSTANT HEAD     =           0.0000
     HEAD DEP BOUNDS     =    17311712.0000       HEAD DEP BOUNDS     =           0.2859
      STREAM LEAKAGE     =   720913728.0000        STREAM LEAKAGE     =          11.2424
        UZF RECHARGE     =       73223.9531          UZF RECHARGE     =           0.0000
               GW ET     =           0.0000                 GW ET     =           0.0000
     SURFACE LEAKAGE     =           0.0000       SURFACE LEAKAGE     =           0.0000
           AG WELLS      =           0.0000             AG WELLS      =           0.0000

                TOTAL IN =  1294704384.0000                  TOTAL IN =          19.6857

          OUT:                                     OUT:
          ----                                     ----
             STORAGE     =   255232640.0000               STORAGE     =           8.6188
       CONSTANT HEAD     =           0.0000         CONSTANT HEAD     =           0.0000
     HEAD DEP BOUNDS     =    17605614.0000       HEAD DEP BOUNDS     =           0.2890
      STREAM LEAKAGE     =   656179968.0000        STREAM LEAKAGE     =          10.7779
        UZF RECHARGE     =           0.0000          UZF RECHARGE     =           0.0000
               GW ET     =     2220319.5000                 GW ET     =           0.0000
     SURFACE LEAKAGE     =           0.0000       SURFACE LEAKAGE     =           0.0000
           AG WELLS      =   363470336.0000             AG WELLS      =           0.0000

               TOTAL OUT =  1294708864.0000                 TOTAL OUT =          19.6857

                IN - OUT =       -4480.0000                  IN - OUT =       5.7220E-06

     PERCENT DISCREPANCY =          -0.00         PERCENT DISCREPANCY =           0.00






         TIME SUMMARY AT END OF TIME STEP   30 IN STRESS PERIOD   24
                    SECONDS     MINUTES      HOURS       DAYS        YEARS
                    -----------------------------------------------------------
   TIME STEP LENGTH  87667.      1461.1      24.352      1.0147     2.77799E-03
 STRESS PERIOD TIME 2.63000E+06  43833.      730.56      30.440     8.33397E-02
         TOTAL TIME 6.05767E+07 1.00961E+06  16827.      701.12      1.9196    
1
1
                            STRESS PERIOD NO.   25, LENGTH =   2630000.    
                            -----------------------------------------------

                              NUMBER OF TIME STEPS =    30

                               MULTIPLIER FOR DELT =     1.000

                            INITIAL TIME STEP SIZE =   87666.66    

 REUSING NON-PARAMETER GHB CELLS FROM LAST STRESS PERIOD

      2 GHB CELLS

 REUSING STREAM SEGMENT DATA FROM LAST STRESS PERIOD



            AREAL INFILTRATION RATE
 READING ON UNIT   19 WITH FORMAT: (FREE)              

            1           2           3           4           5           6           7           8           9          10
 ........................................................................................................................
   1   1.0000E-10  2.0000E-10   0.000       0.000       0.000       0.000       0.000       0.000       0.000       0.000    
   2   2.0000E-10  1.0000E-10  2.0000E-10   0.000       0.000      8.0000E-10  8.0000E-10  5.0000E-10   0.000       0.000    
   3    0.000      5.0000E-10  1.0000E-10  1.0000E-10  8.0000E-10  8.0000E-10  5.0000E-10  5.0000E-10   0.000       0.000    
   4   8.0000E-10  5.0000E-10  1.0000E-10  1.0000E-10  1.0000E-10  1.0000E-10  1.0000E-10  1.0000E-10  2.0000E-10   0.000    
   5   8.0000E-10  5.0000E-10  1.0000E-10  1.0000E-10  1.0000E-10  1.0000E-10  1.0000E-10  1.0000E-10  1.0000E-10  1.0000E-10
   6   8.0000E-10  5.0000E-10  5.0000E-10  2.0000E-10  2.0000E-10  1.0000E-10  1.0000E-10  1.0000E-10  1.0000E-10  5.0000E-10
   7   8.0000E-10  5.0000E-10  5.0000E-10  2.0000E-10  2.0000E-10  1.0000E-10  1.0000E-10  2.0000E-10  2.0000E-10   0.000    
   8    0.000      5.0000E-10  5.0000E-10  2.0000E-10  2.0000E-10  1.0000E-10  1.0000E-10  2.0000E-10  5.0000E-10   0.000    
   9    0.000      5.0000E-10  5.0000E-10  2.0000E-10  2.0000E-10  1.0000E-10  1.0000E-10  2.0000E-10  5.0000E-10   0.000    
  10    0.000      5.0000E-10  5.0000E-10  2.0000E-10  2.0000E-10  1.0000E-10  1.0000E-10  2.0000E-10  5.0000E-10  8.0000E-10
  11    0.000      1.0000E-10  1.0000E-10  1.0000E-10  1.0000E-10  1.0000E-10  1.0000E-10  2.0000E-10  5.0000E-10   0.000    
  12   1.0000E-10  1.0000E-10  1.0000E-10  1.0000E-10  1.0000E-10  1.0000E-10  1.0000E-10  1.0000E-10  2.0000E-10   0.000    
  13   1.0000E-10  1.0000E-10  2.0000E-10  2.0000E-10  2.0000E-10  2.0000E-10  2.0000E-10  1.0000E-10  1.0000E-10   0.000    
  14    0.000      2.0000E-10  5.0000E-10  5.0000E-10  5.0000E-10  5.0000E-10  5.0000E-10  2.0000E-10  1.0000E-10   0.000    
  15    0.000       0.000      8.0000E-10  8.0000E-10  8.0000E-10  8.0000E-10   0.000       0.000       0.000       0.000    

                  ET RATE =  5.000000E-10

 USING ET EXTINCTION DEPTH FROM PREVIOUS STRESS PERIOD. CURRENT PERIOD IS:      25

 USING EXTINCTION WATER CONTENT FROM PREVIOUS STRESS PERIOD. CURRENT PERIOD IS:      25

 USING AIR ENTRY PRESSURE FROM PREVIOUS STRESS PERIOD. CURRENT PERIOD IS:      25

 USING ROOT PRESSURE HEAD FROM PREVIOUS STRESS PERIOD. CURRENT PERIOD IS:      25

 USING ROOT ACTIVITY FROM PREVIOUS STRESS PERIOD. CURRENT PERIOD IS:      25

 PROCESSING AG STRESS PERIOD DATA

 READING AG STRESS PERIOD DATA

 READING IRRIGATION SEGMENT

 READING IRRIGATION WELL

 READING SUPPLEMENTAL WELL

 END PROCESSING AG STRESS PERIOD DATA OPTIONS
 
 SOLVING FOR HEAD 
                                                   Max.-Head-Change                         Max.-Flux-Residual
  Residual-Control   Outer-Iter.   Inner-Iter.     Column Row Layer    Maximum-Head-Change  Column Row Layer    Maximum-Flux-Residual          L2-NORM 
          0                 1           2             4    7     1       0.3016141493E-01       4    7    1         0.1590154106E+01      0.3255169381E+01
          0                 2           2             4    7     1      -0.2933902431E-02       4    7    1        -0.1590167082E+00      0.3255167142E+00
          0                 3           2             4    7     1       0.1997876909E-03       4    7    1         0.1113116209E-01      0.2278605623E-01
          0                 4           1             4    7     1      -0.7949740059E-05       4    7    1        -0.4552652226E-03      0.9319429384E-03

    ------------------------------------------------
       NWT REQUIRED            4 OUTER ITERATIONS 
       AND A TOTAL OF          7 INNER ITERATIONS.
    ------------------------------------------------

 NO OUTPUT CONTROL FOR STRESS PERIOD   25   TIME STEP    1
 
 SOLVING FOR HEAD 
                                                   Max.-Head-Change                         Max.-Flux-Residual
  Residual-Control   Outer-Iter.   Inner-Iter.     Column Row Layer    Maximum-Head-Change  Column Row Layer    Maximum-Flux-Residual          L2-NORM 
          0                 1           2             4    7     1       0.2972578598E-01       4    7    1         0.1567145922E+01      0.3212045400E+01
          0                 2           2             4    7     1      -0.2891527129E-02       4    7    1        -0.1567158572E+00      0.3212038706E+00
          0                 3           2             4    7     1       0.1969020948E-03       4    7    1         0.1097010277E-01      0.2248411675E-01
          0                 4           1             4    7     1      -0.7834919504E-05       4    7    1        -0.4486778880E-03      0.9195998045E-03

    ------------------------------------------------
       NWT REQUIRED            4 OUTER ITERATIONS 
       AND A TOTAL OF          7 INNER ITERATIONS.
    ------------------------------------------------

 NO OUTPUT CONTROL FOR STRESS PERIOD   25   TIME STEP    2
 
 SOLVING FOR HEAD 
                                                   Max.-Head-Change                         Max.-Flux-Residual
  Residual-Control   Outer-Iter.   Inner-Iter.     Column Row Layer    Maximum-Head-Change  Column Row Layer    Maximum-Flux-Residual          L2-NORM 
          0                 1           2             4    7     1       0.2929736166E-01       4    7    1         0.1544515020E+01      0.3169402982E+01
          0                 2           2             4    7     1      -0.2849852650E-02       4    7    1        -0.1544527349E+00      0.3169396963E+00
          0                 3           2             4    7     1       0.1940642220E-03       4    7    1         0.1081168445E-01      0.2218564904E-01
          0                 4           1             4    7     1      -0.7721998094E-05       4    7    1        -0.4421985775E-03      0.9073760488E-03

    ------------------------------------------------
       NWT REQUIRED            4 OUTER ITERATIONS 
       AND A TOTAL OF          7 INNER ITERATIONS.
    ------------------------------------------------

 NO OUTPUT CONTROL FOR STRESS PERIOD   25   TIME STEP    3
 
 SOLVING FOR HEAD 
                                                   Max.-Head-Change                         Max.-Flux-Residual
  Residual-Control   Outer-Iter.   Inner-Iter.     Column Row Layer    Maximum-Head-Change  Column Row Layer    Maximum-Flux-Residual          L2-NORM 
          0                 1           2             4    7     1       0.2887593310E-01       4    7    1         0.1522250316E+01      0.3127666614E+01
          0                 2           2             4    7     1      -0.2808858676E-02       4    7    1        -0.1522262331E+00      0.3127661461E+00
          0                 3           2             4    7     1       0.1912726886E-03       4    7    1         0.1065582955E-01      0.2189350833E-01
          0                 4           1             4    7     1      -0.7610919876E-05       4    7    1        -0.4358240831E-03      0.8954470582E-03

    ------------------------------------------------
       NWT REQUIRED            4 OUTER ITERATIONS 
       AND A TOTAL OF          7 INNER ITERATIONS.
    ------------------------------------------------

 NO OUTPUT CONTROL FOR STRESS PERIOD   25   TIME STEP    4
 
 SOLVING FOR HEAD 
                                                   Max.-Head-Change                         Max.-Flux-Residual
  Residual-Control   Outer-Iter.   Inner-Iter.     Column Row Layer    Maximum-Head-Change  Column Row Layer    Maximum-Flux-Residual          L2-NORM 
          0                 1           2             4    7     1       0.2846156457E-01       4    7    1         0.1500355675E+01      0.3086813241E+01
          0                 2           2             4    7     1      -0.2768551460E-02       4    7    1        -0.1500367382E+00      0.3086808553E+00
          0                 3           2             4    7     1       0.1885279215E-03       4    7    1         0.1050256514E-01      0.2160752803E-01
          0                 4           1             4    7     1      -0.7501703273E-05       4    7    1        -0.4295555709E-03      0.8837416301E-03

    ------------------------------------------------
       NWT REQUIRED            4 OUTER ITERATIONS 
       AND A TOTAL OF          7 INNER ITERATIONS.
    ------------------------------------------------

 NO OUTPUT CONTROL FOR STRESS PERIOD   25   TIME STEP    5
 
 SOLVING FOR HEAD 
                                                   Max.-Head-Change                         Max.-Flux-Residual
  Residual-Control   Outer-Iter.   Inner-Iter.     Column Row Layer    Maximum-Head-Change  Column Row Layer    Maximum-Flux-Residual          L2-NORM 
          0                 1           2             4    7     1       0.2805416902E-01       4    7    1         0.1478827083E+01      0.3046801446E+01
          0                 2           2             4    7     1      -0.2728922536E-02       4    7    1        -0.1478838488E+00      0.3046797521E+00
          0                 3           2             4    7     1       0.1858293428E-03       4    7    1         0.1035186310E-01      0.2132748091E-01
          0                 4           1             4    7     1      -0.7394323875E-05       4    7    1        -0.4233918335E-03      0.8722864575E-03

    ------------------------------------------------
       NWT REQUIRED            4 OUTER ITERATIONS 
       AND A TOTAL OF          7 INNER ITERATIONS.
    ------------------------------------------------

 NO OUTPUT CONTROL FOR STRESS PERIOD   25   TIME STEP    6
 
 SOLVING FOR HEAD 
                                                   Max.-Head-Change                         Max.-Flux-Residual
  Residual-Control   Outer-Iter.   Inner-Iter.     Column Row Layer    Maximum-Head-Change  Column Row Layer    Maximum-Flux-Residual          L2-NORM 
          0                 1           2             4    7     1       0.2765366054E-01       4    7    1         0.1457660027E+01      0.3007617399E+01
          0                 2           2             4    7     1      -0.2689963544E-02       4    7    1        -0.1457671137E+00      0.3007613765E+00
          0                 3           2             4    7     1       0.1831763840E-03       4    7    1         0.1020369185E-01      0.2105325124E-01
          0                 4           1             4    7     1      -0.7288760615E-05       4    7    1        -0.4173316240E-03      0.8613052116E-03

    ------------------------------------------------
       NWT REQUIRED            4 OUTER ITERATIONS 
       AND A TOTAL OF          7 INNER ITERATIONS.
    ------------------------------------------------

 NO OUTPUT CONTROL FOR STRESS PERIOD   25   TIME STEP    7
 
 SOLVING FOR HEAD 
                                                   Max.-Head-Change                         Max.-Flux-Residual
  Residual-Control   Outer-Iter.   Inner-Iter.     Column Row Layer    Maximum-Head-Change  Column Row Layer    Maximum-Flux-Residual          L2-NORM 
          0                 1           2             4    7     1       0.2725994506E-01       4    7    1         0.1436850051E+01      0.2969233734E+01
          0                 2           2             4    7     1      -0.2651665337E-02       4    7    1        -0.1436860873E+00      0.2969230430E+00
          0                 3           2             4    7     1       0.1805684226E-03       4    7    1         0.1005802022E-01      0.2078451482E-01
          0                 4           1             4    7     1      -0.7184987244E-05       4    7    1        -0.4113736570E-03      0.8500823904E-03

    ------------------------------------------------
       NWT REQUIRED            4 OUTER ITERATIONS 
       AND A TOTAL OF          7 INNER ITERATIONS.
    ------------------------------------------------

 NO OUTPUT CONTROL FOR STRESS PERIOD   25   TIME STEP    8
 
 SOLVING FOR HEAD 
                                                   Max.-Head-Change                         Max.-Flux-Residual
  Residual-Control   Outer-Iter.   Inner-Iter.     Column Row Layer    Maximum-Head-Change  Column Row Layer    Maximum-Flux-Residual          L2-NORM 
          0                 1           2             4    7     1       0.2687293265E-01       4    7    1         0.1416392280E+01      0.2931634057E+01
          0                 2           2             4    7     1      -0.2614019165E-02       4    7    1        -0.1416402820E+00      0.2931631108E+00
          0                 3           2             4    7     1       0.1780048617E-03       4    7    1         0.9914814052E-02      0.2052131350E-01
          0                 4           1             4    7     1      -0.7082980736E-05       4    7    1        -0.4055165027E-03      0.8393158575E-03

    ------------------------------------------------
       NWT REQUIRED            4 OUTER ITERATIONS 
       AND A TOTAL OF          7 INNER ITERATIONS.
    ------------------------------------------------

 NO OUTPUT CONTROL FOR STRESS PERIOD   25   TIME STEP    9
 
 SOLVING FOR HEAD 
                                                   Max.-Head-Change                         Max.-Flux-Residual
  Residual-Control   Outer-Iter.   Inner-Iter.     Column Row Layer    Maximum-Head-Change  Column Row Layer    Maximum-Flux-Residual          L2-NORM 
          0                 1           2             4    7     1       0.2649252789E-01       4    7    1         0.1396282050E+01      0.2894781738E+01
          0                 2           2             4    7     1      -0.2577015748E-02       4    7    1        -0.1396292315E+00      0.2894779136E+00
          0                 3           2             4    7     1       0.1754850705E-03       4    7    1         0.9774040720E-02      0.2026335499E-01
          0                 4           1             4    7     1      -0.6982715879E-05       4    7    1        -0.3997588788E-03      0.8287655200E-03

    ------------------------------------------------
       NWT REQUIRED            4 OUTER ITERATIONS 
       AND A TOTAL OF          7 INNER ITERATIONS.
    ------------------------------------------------

 NO OUTPUT CONTROL FOR STRESS PERIOD   25   TIME STEP   10
 
 SOLVING FOR HEAD 
                                                   Max.-Head-Change                         Max.-Flux-Residual
  Residual-Control   Outer-Iter.   Inner-Iter.     Column Row Layer    Maximum-Head-Change  Column Row Layer    Maximum-Flux-Residual          L2-NORM 
          0                 1           2             4    7     1       0.2611876750E-01       4    7    1         0.1376521766E+01      0.2858671023E+01
          0                 2           2             4    7     1      -0.2540658655E-02       4    7    1        -0.1376531762E+00      0.2858668470E+00
          0                 3           2             4    7     1       0.1730092913E-03       4    7    1         0.9635717038E-02      0.2001056321E-01
          0                 4           1             4    7     1      -0.6884202803E-05       4    7    1        -0.3941014418E-03      0.8184108486E-03

    ------------------------------------------------
       NWT REQUIRED            4 OUTER ITERATIONS 
       AND A TOTAL OF          7 INNER ITERATIONS.
    ------------------------------------------------

 NO OUTPUT CONTROL FOR STRESS PERIOD   25   TIME STEP   11
 
 SOLVING FOR HEAD 
                                                   Max.-Head-Change                         Max.-Flux-Residual
  Residual-Control   Outer-Iter.   Inner-Iter.     Column Row Layer    Maximum-Head-Change  Column Row Layer    Maximum-Flux-Residual          L2-NORM 
          0                 1           2             4    7     1       0.2575141086E-01       4    7    1         0.1357098628E+01      0.2823268816E+01
          0                 2           2             4    7     1      -0.2504924482E-02       4    7    1        -0.1357108362E+00      0.2823266598E+00
          0                 3           2             4    7     1       0.1705759302E-03       4    7    1         0.9499753427E-02      0.1976276793E-01
          0                 4           1             4    7     1      -0.6787376692E-05       4    7    1        -0.3885405042E-03      0.8082798905E-03

    ------------------------------------------------
       NWT REQUIRED            4 OUTER ITERATIONS 
       AND A TOTAL OF          7 INNER ITERATIONS.
    ------------------------------------------------

 NO OUTPUT CONTROL FOR STRESS PERIOD   25   TIME STEP   12
 
 SOLVING FOR HEAD 
                                                   Max.-Head-Change                         Max.-Flux-Residual
  Residual-Control   Outer-Iter.   Inner-Iter.     Column Row Layer    Maximum-Head-Change  Column Row Layer    Maximum-Flux-Residual          L2-NORM 
          0                 1           2             4    7     1       0.2539035626E-01       4    7    1         0.1338007513E+01      0.2788557039E+01
          0                 2           2             4    7     1      -0.2469803337E-02       4    7    1        -0.1338016991E+00      0.2788554896E+00
          0                 3           2             4    7     1       0.1681843139E-03       4    7    1         0.9366114014E-02      0.1951980521E-01
          0                 4           1             4    7     1      -0.6692212102E-05       4    7    1        -0.3830746393E-03      0.7983596260E-03

    ------------------------------------------------
       NWT REQUIRED            4 OUTER ITERATIONS 
       AND A TOTAL OF          7 INNER ITERATIONS.
    ------------------------------------------------

 NO OUTPUT CONTROL FOR STRESS PERIOD   25   TIME STEP   13
 
 SOLVING FOR HEAD 
                                                   Max.-Head-Change                         Max.-Flux-Residual
  Residual-Control   Outer-Iter.   Inner-Iter.     Column Row Layer    Maximum-Head-Change  Column Row Layer    Maximum-Flux-Residual          L2-NORM 
          0                 1           2             4    7     1       0.2503577520E-01       4    7    1         0.1319257851E+01      0.2754526081E+01
          0                 2           2             4    7     1      -0.2435311899E-02       4    7    1        -0.1319267079E+00      0.2754523999E+00
          0                 3           2             4    7     1       0.1658355783E-03       4    7    1         0.9234864817E-02      0.1928158266E-01
          0                 4           1             4    7     1      -0.6598753013E-05       4    7    1        -0.3777065242E-03      0.7886070414E-03

    ------------------------------------------------
       NWT REQUIRED            4 OUTER ITERATIONS 
       AND A TOTAL OF          7 INNER ITERATIONS.
    ------------------------------------------------

 NO OUTPUT CONTROL FOR STRESS PERIOD   25   TIME STEP   14
 
 SOLVING FOR HEAD 
                                                   Max.-Head-Change                         Max.-Flux-Residual
  Residual-Control   Outer-Iter.   Inner-Iter.     Column Row Layer    Maximum-Head-Change  Column Row Layer    Maximum-Flux-Residual          L2-NORM 
          0                 1           2             4    7     1       0.2468714804E-01       4    7    1         0.1300821774E+01      0.2721148983E+01
          0                 2           2             4    7     1      -0.2401399623E-02       4    7    1        -0.1300830759E+00      0.2721146950E+00
          0                 3           2             4    7     1       0.1635262817E-03       4    7    1         0.9105810739E-02      0.1904795138E-01
          0                 4           1             4    7     1      -0.6506864609E-05       4    7    1        -0.3724282192E-03      0.7790562086E-03

    ------------------------------------------------
       NWT REQUIRED            4 OUTER ITERATIONS 
       AND A TOTAL OF          7 INNER ITERATIONS.
    ------------------------------------------------

 NO OUTPUT CONTROL FOR STRESS PERIOD   25   TIME STEP   15
 
 SOLVING FOR HEAD 
                                                   Max.-Head-Change                         Max.-Flux-Residual
  Residual-Control   Outer-Iter.   Inner-Iter.     Column Row Layer    Maximum-Head-Change  Column Row Layer    Maximum-Flux-Residual          L2-NORM 
          0                 1           2             4    7     1       0.2434478383E-01       4    7    1         0.1282716453E+01      0.2688411440E+01
          0                 2           2             4    7     1      -0.2368096571E-02       4    7    1        -0.1282725202E+00      0.2688409439E+00
          0                 3           2             4    7     1       0.1612584706E-03       4    7    1         0.8979072012E-02      0.1881878908E-01
          0                 4           1             4    7     1      -0.6416625754E-05       4    7    1        -0.3672445887E-03      0.7696916912E-03

    ------------------------------------------------
       NWT REQUIRED            4 OUTER ITERATIONS 
       AND A TOTAL OF          7 INNER ITERATIONS.
    ------------------------------------------------

 NO OUTPUT CONTROL FOR STRESS PERIOD   25   TIME STEP   16
 
 SOLVING FOR HEAD 
                                                   Max.-Head-Change                         Max.-Flux-Residual
  Residual-Control   Outer-Iter.   Inner-Iter.     Column Row Layer    Maximum-Head-Change  Column Row Layer    Maximum-Flux-Residual          L2-NORM 
          0                 1           2             4    7     1       0.2400843313E-01       4    7    1         0.1264928503E+01      0.2656302716E+01
          0                 2           2             4    7     1      -0.2335378477E-02       4    7    1        -0.1264937021E+00      0.2656300740E+00
          0                 3           2             4    7     1       0.1590304932E-03       4    7    1         0.8854554914E-02      0.1859403034E-01
          0                 4           1             4    7     1      -0.6327972667E-05       4    7    1        -0.3621518365E-03      0.7604919037E-03

    ------------------------------------------------
       NWT REQUIRED            4 OUTER ITERATIONS 
       AND A TOTAL OF          7 INNER ITERATIONS.
    ------------------------------------------------

 NO OUTPUT CONTROL FOR STRESS PERIOD   25   TIME STEP   17
 
 SOLVING FOR HEAD 
                                                   Max.-Head-Change                         Max.-Flux-Residual
  Residual-Control   Outer-Iter.   Inner-Iter.     Column Row Layer    Maximum-Head-Change  Column Row Layer    Maximum-Flux-Residual          L2-NORM 
          0                 1           2             4    7     1       0.2367785338E-01       4    7    1         0.1247444989E+01      0.2624792212E+01
          0                 2           2             4    7     1      -0.2303221749E-02       4    7    1        -0.1247453282E+00      0.2624790858E+00
          0                 3           2             4    7     1       0.1568407423E-03       4    7    1         0.8732168892E-02      0.1837344140E-01
          0                 4           1             4    7     1      -0.6240840415E-05       4    7    1        -0.3571462375E-03      0.7514549044E-03

    ------------------------------------------------
       NWT REQUIRED            4 OUTER ITERATIONS 
       AND A TOTAL OF          7 INNER ITERATIONS.
    ------------------------------------------------

 NO OUTPUT CONTROL FOR STRESS PERIOD   25   TIME STEP   18
 
 SOLVING FOR HEAD 
                                                   Max.-Head-Change                         Max.-Flux-Residual
  Residual-Control   Outer-Iter.   Inner-Iter.     Column Row Layer    Maximum-Head-Change  Column Row Layer    Maximum-Flux-Residual          L2-NORM 
          0                 1           2             4    7     1       0.2335321150E-01       4    7    1         0.1230275397E+01      0.2593869401E+01
          0                 2           2             4    7     1      -0.2271642623E-02       4    7    1        -0.1230283470E+00      0.2593866800E+00
          0                 3           2             4    7     1       0.1546903242E-03       4    7    1         0.8611980378E-02      0.1815699953E-01
          0                 4           1             4    7     1      -0.6155273207E-05       4    7    1        -0.3522305121E-03      0.7426177200E-03

    ------------------------------------------------
       NWT REQUIRED            4 OUTER ITERATIONS 
       AND A TOTAL OF          7 INNER ITERATIONS.
    ------------------------------------------------

 NO OUTPUT CONTROL FOR STRESS PERIOD   25   TIME STEP   19
 
 SOLVING FOR HEAD 
                                                   Max.-Head-Change                         Max.-Flux-Residual
  Residual-Control   Outer-Iter.   Inner-Iter.     Column Row Layer    Maximum-Head-Change  Column Row Layer    Maximum-Flux-Residual          L2-NORM 
          0                 1           2             4    7     1       0.2303426083E-01       4    7    1         0.1213406319E+01      0.2563527613E+01
          0                 2           2             4    7     1      -0.2240617105E-02       4    7    1        -0.1213414179E+00      0.2563525739E+00
          0                 3           2             4    7     1       0.1525776046E-03       4    7    1         0.8493895488E-02      0.1794461586E-01
          0                 4           1             4    7     1      -0.6071206343E-05       4    7    1        -0.3474008467E-03      0.7339345493E-03

    ------------------------------------------------
       NWT REQUIRED            4 OUTER ITERATIONS 
       AND A TOTAL OF          7 INNER ITERATIONS.
    ------------------------------------------------

 NO OUTPUT CONTROL FOR STRESS PERIOD   25   TIME STEP   20
 
 SOLVING FOR HEAD 
                                                   Max.-Head-Change                         Max.-Flux-Residual
  Residual-Control   Outer-Iter.   Inner-Iter.     Column Row Layer    Maximum-Head-Change  Column Row Layer    Maximum-Flux-Residual          L2-NORM 
          0                 1           2             4    7     1       0.2272089616E-01       4    7    1         0.1196832320E+01      0.2533748021E+01
          0                 2           2             4    7     1      -0.2210134961E-02       4    7    1        -0.1196839973E+00      0.2533745850E+00
          0                 3           2             4    7     1       0.1505018863E-03       4    7    1         0.8377876189E-02      0.1773613691E-01
          0                 4           1             4    7     1      -0.5988611154E-05       4    7    1        -0.3426556311E-03      0.7253999734E-03

    ------------------------------------------------
       NWT REQUIRED            4 OUTER ITERATIONS 
       AND A TOTAL OF          7 INNER ITERATIONS.
    ------------------------------------------------

 NO OUTPUT CONTROL FOR STRESS PERIOD   25   TIME STEP   21
 
 SOLVING FOR HEAD 
                                                   Max.-Head-Change                         Max.-Flux-Residual
  Residual-Control   Outer-Iter.   Inner-Iter.     Column Row Layer    Maximum-Head-Change  Column Row Layer    Maximum-Flux-Residual          L2-NORM 
          0                 1           2             4    7     1       0.2241301000E-01       4    7    1         0.1180547946E+01      0.2504502778E+01
          0                 2           2             4    7     1      -0.2180185734E-02       4    7    1        -0.1180555397E+00      0.2504500634E+00
          0                 3           2             4    7     1       0.1484624579E-03       4    7    1         0.8263884295E-02      0.1753143022E-01
          0                 4           1             4    7     1      -0.5907460357E-05       4    7    1        -0.3379933548E-03      0.7170366843E-03

    ------------------------------------------------
       NWT REQUIRED            4 OUTER ITERATIONS 
       AND A TOTAL OF          7 INNER ITERATIONS.
    ------------------------------------------------

 NO OUTPUT CONTROL FOR STRESS PERIOD   25   TIME STEP   22
 
 SOLVING FOR HEAD 
                                                   Max.-Head-Change                         Max.-Flux-Residual
  Residual-Control   Outer-Iter.   Inner-Iter.     Column Row Layer    Maximum-Head-Change  Column Row Layer    Maximum-Flux-Residual          L2-NORM 
          0                 1           2             4    7     1       0.2211063311E-01       4    7    1         0.1164554978E+01      0.2475801058E+01
          0                 2           2             4    7     1      -0.2150772417E-02       4    7    1        -0.1164562233E+00      0.2475798821E+00
          0                 3           2             4    7     1       0.1464595233E-03       4    7    1         0.8151932292E-02      0.1733052244E-01
          0                 4           1             4    7     1      -0.5827762009E-05       4    7    1        -0.3334145301E-03      0.7088178664E-03

    ------------------------------------------------
       NWT REQUIRED            4 OUTER ITERATIONS 
       AND A TOTAL OF          7 INNER ITERATIONS.
    ------------------------------------------------

 NO OUTPUT CONTROL FOR STRESS PERIOD   25   TIME STEP   23
 
 SOLVING FOR HEAD 
                                                   Max.-Head-Change                         Max.-Flux-Residual
  Residual-Control   Outer-Iter.   Inner-Iter.     Column Row Layer    Maximum-Head-Change  Column Row Layer    Maximum-Flux-Residual          L2-NORM 
          0                 1           2             4    7     1       0.2181365646E-01       4    7    1         0.1148847657E+01      0.2447611608E+01
          0                 2           2             4    7     1      -0.2121884405E-02       4    7    1        -0.1148854721E+00      0.2447609335E+00
          0                 3           2             4    7     1       0.1444923594E-03       4    7    1         0.8041979834E-02      0.1713320694E-01
          0                 4           1             4    7     1      -0.5749486753E-05       4    7    1        -0.3289174697E-03      0.7007427679E-03

    ------------------------------------------------
       NWT REQUIRED            4 OUTER ITERATIONS 
       AND A TOTAL OF          7 INNER ITERATIONS.
    ------------------------------------------------

 NO OUTPUT CONTROL FOR STRESS PERIOD   25   TIME STEP   24
 
 SOLVING FOR HEAD 
                                                   Max.-Head-Change                         Max.-Flux-Residual
  Residual-Control   Outer-Iter.   Inner-Iter.     Column Row Layer    Maximum-Head-Change  Column Row Layer    Maximum-Flux-Residual          L2-NORM 
          0                 1           2             4    7     1       0.2152170096E-01       4    7    1         0.1133405619E+01      0.2419924631E+01
          0                 2           2             4    7     1      -0.2093484821E-02       4    7    1        -0.1133412496E+00      0.2419922426E+00
          0                 3           2             4    7     1       0.1425584555E-03       4    7    1         0.7933884389E-02      0.1693939932E-01
          0                 4           1             4    7     1      -0.5672534890E-05       4    7    1        -0.3244963486E-03      0.6928224492E-03

    ------------------------------------------------
       NWT REQUIRED            4 OUTER ITERATIONS 
       AND A TOTAL OF          7 INNER ITERATIONS.
    ------------------------------------------------

 NO OUTPUT CONTROL FOR STRESS PERIOD   25   TIME STEP   25
 
 SOLVING FOR HEAD 
                                                   Max.-Head-Change                         Max.-Flux-Residual
  Residual-Control   Outer-Iter.   Inner-Iter.     Column Row Layer    Maximum-Head-Change  Column Row Layer    Maximum-Flux-Residual          L2-NORM 
          0                 1           2             4    7     1       0.2123507940E-01       4    7    1         0.1118245986E+01      0.2392744085E+01
          0                 2           2             4    7     1      -0.2065604091E-02       4    7    1        -0.1118252683E+00      0.2392741746E+00
          0                 3           2             4    7     1       0.1406598843E-03       4    7    1         0.7827765836E-02      0.1674914083E-01
          0                 4           1             4    7     1      -0.5596988964E-05       4    7    1        -0.3201561126E-03      0.6850443361E-03

    ------------------------------------------------
       NWT REQUIRED            4 OUTER ITERATIONS 
       AND A TOTAL OF          7 INNER ITERATIONS.
    ------------------------------------------------

 NO OUTPUT CONTROL FOR STRESS PERIOD   25   TIME STEP   26
 
 SOLVING FOR HEAD 
                                                   Max.-Head-Change                         Max.-Flux-Residual
  Residual-Control   Outer-Iter.   Inner-Iter.     Column Row Layer    Maximum-Head-Change  Column Row Layer    Maximum-Flux-Residual          L2-NORM 
          0                 1           2             4    7     1       0.2095340910E-01       4    7    1         0.1103348197E+01      0.2366037194E+01
          0                 2           2             4    7     1      -0.2038204992E-02       4    7    1        -0.1103354718E+00      0.2366034751E+00
          0                 3           2             4    7     1       0.1387941097E-03       4    7    1         0.7723480200E-02      0.1656217709E-01
          0                 4           1             4    7     1      -0.5522748125E-05       4    7    1        -0.3158908189E-03      0.6773870375E-03

    ------------------------------------------------
       NWT REQUIRED            4 OUTER ITERATIONS 
       AND A TOTAL OF          7 INNER ITERATIONS.
    ------------------------------------------------

 NO OUTPUT CONTROL FOR STRESS PERIOD   25   TIME STEP   27
 
 SOLVING FOR HEAD 
                                                   Max.-Head-Change                         Max.-Flux-Residual
  Residual-Control   Outer-Iter.   Inner-Iter.     Column Row Layer    Maximum-Head-Change  Column Row Layer    Maximum-Flux-Residual          L2-NORM 
          0                 1           2             4    7     1       0.2067672522E-01       4    7    1         0.1088714480E+01      0.2339796323E+01
          0                 2           2             4    7     1      -0.2011290942E-02       4    7    1        -0.1088720830E+00      0.2339793707E+00
          0                 3           2             4    7     1       0.1369613649E-03       4    7    1         0.7621043105E-02      0.1637849520E-01
          0                 4           1             4    7     1      -0.5449821122E-05       4    7    1        -0.3117011104E-03      0.6698796079E-03

    ------------------------------------------------
       NWT REQUIRED            4 OUTER ITERATIONS 
       AND A TOTAL OF          7 INNER ITERATIONS.
    ------------------------------------------------

 NO OUTPUT CONTROL FOR STRESS PERIOD   25   TIME STEP   28
 
 SOLVING FOR HEAD 
                                                   Max.-Head-Change                         Max.-Flux-Residual
  Residual-Control   Outer-Iter.   Inner-Iter.     Column Row Layer    Maximum-Head-Change  Column Row Layer    Maximum-Flux-Residual          L2-NORM 
          0                 1           2             4    7     1       0.2040492687E-01       4    7    1         0.1074339300E+01      0.2314019222E+01
          0                 2           2             4    7     1      -0.1984852128E-02       4    7    1        -0.1074345484E+00      0.2314016455E+00
          0                 3           2             4    7     1       0.1351609821E-03       4    7    1         0.7520415782E-02      0.1619805504E-01
          0                 4           1             4    7     1      -0.5378182512E-05       4    7    1        -0.3075854686E-03      0.6625101471E-03

    ------------------------------------------------
       NWT REQUIRED            4 OUTER ITERATIONS 
       AND A TOTAL OF          7 INNER ITERATIONS.
    ------------------------------------------------

 NO OUTPUT CONTROL FOR STRESS PERIOD   25   TIME STEP   29
 
 SOLVING FOR HEAD 
                                                   Max.-Head-Change                         Max.-Flux-Residual
  Residual-Control   Outer-Iter.   Inner-Iter.     Column Row Layer    Maximum-Head-Change  Column Row Layer    Maximum-Flux-Residual          L2-NORM 
          0                 1           2             4    7     1       0.2013791289E-01       4    7    1         0.1060217427E+01      0.2288814421E+01
          0                 2           2             4    7     1      -0.1958878710E-02       4    7    1        -0.1060223450E+00      0.2288810369E+00
          0                 3           2             4    7     1       0.1333922909E-03       4    7    1         0.7421561658E-02      0.1602160275E-01
          0                 4           1             4    7     1      -0.5307804435E-05       4    7    1        -0.3035423174E-03      0.6552694911E-03

    ------------------------------------------------
       NWT REQUIRED            4 OUTER ITERATIONS 
       AND A TOTAL OF          7 INNER ITERATIONS.
    ------------------------------------------------

 NO OUTPUT CONTROL FOR STRESS PERIOD   25   TIME STEP   30



 STREAM LISTING     PERIOD     25   STEP       30

 LAYER ROW COL. STREAM  RCH.  FLOW INTO     FLOW TO   FLOW OUT OF   OVRLND.     DIRECT     STREAM       STREAM     STREAM     STREAM   STREAMBED  STREAMBED
                SEG.NO.  NO.  STRM. RCH.    AQUIFER    STRM. RCH.    RUNOFF     PRECIP       ET          HEAD       DEPTH      WIDTH   CONDCTNC.   GRADIENT

   1    1    1     1     1    1.4942E+01  1.8668E-01   1.4756E+01  0.000E+00  0.000E+00  0.000E+00  1.09406E+03  1.009E+00  1.035E+01  4.656E-02  1.336E+00
   1    2    2     1     2    1.4756E+01  2.8774E-01   1.4468E+01  0.000E+00  0.000E+00  0.000E+00  1.08906E+03  1.004E+00  1.027E+01  7.186E-02  1.335E+00
   1    3    3     1     3    1.4468E+01  2.4407E-01   1.4224E+01  0.000E+00  0.000E+00  0.000E+00  1.08342E+03  9.991E-01  1.017E+01  6.103E-02  1.333E+00
   1    3    4     1     4    1.4224E+01  2.2366E-01   1.4000E+01  0.000E+00  0.000E+00  0.000E+00  1.07840E+03  9.944E-01  1.009E+01  5.599E-02  1.331E+00
   1    4    5     2     1    1.2000E+01  2.9419E-01   1.1706E+01  0.000E+00  0.000E+00  0.000E+00  1.07271E+03  7.717E-01  1.200E+01  7.800E-02  1.257E+00
   1    5    6     2     2    1.1706E+01  2.2569E-01   1.1480E+01  0.000E+00  0.000E+00  0.000E+00  1.06727E+03  7.615E-01  1.200E+01  6.000E-02  1.254E+00
   1    6    6     2     3    1.1480E+01  2.2515E-01   1.1255E+01  0.000E+00  0.000E+00  0.000E+00  1.06255E+03  7.526E-01  1.200E+01  6.000E-02  1.251E+00
   1    7    6     2     4    1.1255E+01  2.2462E-01   1.1031E+01  0.000E+00  0.000E+00  0.000E+00  1.05782E+03  7.436E-01  1.200E+01  6.000E-02  1.248E+00
   1    8    6     2     5    1.1031E+01  2.2408E-01   1.0807E+01  0.000E+00  0.000E+00  0.000E+00  1.05309E+03  7.346E-01  1.200E+01  6.000E-02  1.245E+00
   1    3    5     3     1    2.0000E+00  2.8252E-01   1.7175E+00  0.000E+00  0.000E+00  0.000E+00  1.07555E+03  1.909E+00  9.636E+00  7.227E-02  1.955E+00
   1    3    6     3     2    1.7175E+00  2.4905E-01   1.4684E+00  0.000E+00  0.000E+00  0.000E+00  1.07264E+03  1.727E+00  8.909E+00  6.682E-02  1.864E+00
   1    3    7     3     3    1.4684E+00  1.9718E-01   1.2712E+00  0.000E+00  0.000E+00  0.000E+00  1.06987E+03  1.555E+00  8.218E+00  5.547E-02  1.777E+00
   1    4    8     3     4    1.2712E+00  2.2567E-01   1.0456E+00  0.000E+00  0.000E+00  0.000E+00  1.06682E+03  1.364E+00  7.455E+00  6.709E-02  1.682E+00
   1    5    8     3     5    1.0456E+00  1.5790E-01   8.8768E-01  0.000E+00  0.000E+00  0.000E+00  1.06362E+03  1.164E+00  6.655E+00  4.991E-02  1.582E+00
   1    6    8     3     6    8.8768E-01  5.5980E-02   8.3170E-01  0.000E+00  0.000E+00  0.000E+00  1.06158E+03  1.036E+00  6.145E+00  1.844E-02  1.518E+00
   1    5   10     4     1    1.0000E+01  9.0919E-02   9.9091E+00  0.000E+00  0.000E+00  0.000E+00  1.07836E+03  6.368E-01  1.000E+01  2.500E-02  1.212E+00
   1    5    9     4     2    9.9091E+00  1.8158E-01   9.7275E+00  0.000E+00  0.000E+00  0.000E+00  1.07154E+03  6.315E-01  1.000E+01  5.000E-02  1.211E+00
   1    6    8     4     3    9.7275E+00  1.2689E-01   9.6006E+00  0.000E+00  0.000E+00  0.000E+00  1.06381E+03  6.256E-01  1.000E+01  3.500E-02  1.209E+00
   1    6    8     5     1    1.0432E+01  2.2686E-01   1.0205E+01  0.000E+00  0.000E+00  0.000E+00  1.05868E+03  6.790E-01  1.542E+01  6.166E-02  1.226E+00
   1    7    7     5     2    1.0205E+01  2.7894E-01   9.9265E+00  0.000E+00  0.000E+00  0.000E+00  1.05417E+03  6.732E-01  1.519E+01  7.594E-02  1.224E+00
   1    8    7     5     3    9.9265E+00  1.9221E-01   9.7343E+00  0.000E+00  0.000E+00  0.000E+00  1.04992E+03  6.676E-01  1.497E+01  5.241E-02  1.223E+00
   1    8    6     5     4    9.7343E+00  1.3577E-01   9.5985E+00  0.000E+00  0.000E+00  0.000E+00  1.04691E+03  6.637E-01  1.482E+01  3.706E-02  1.221E+00
   1    9    6     6     1    2.0405E+01  2.4462E-01   2.0161E+01  0.000E+00  0.000E+00  0.000E+00  1.04380E+03  1.077E+00  1.200E+01  6.000E-02  1.359E+00
   1   10    7     6     2    2.0161E+01  2.4416E-01   1.9916E+01  0.000E+00  0.000E+00  0.000E+00  1.03925E+03  1.069E+00  1.200E+01  6.000E-02  1.356E+00
   1   11    7     6     3    1.9916E+01  2.4369E-01   1.9673E+01  0.000E+00  0.000E+00  0.000E+00  1.03470E+03  1.061E+00  1.200E+01  6.000E-02  1.354E+00
   1   12    7     6     4    1.9673E+01  2.4322E-01   1.9429E+01  0.000E+00  0.000E+00  0.000E+00  1.03014E+03  1.054E+00  1.200E+01  6.000E-02  1.351E+00
   1   13    7     6     5    1.9429E+01 -2.2710E-02   1.9452E+01  0.000E+00  0.000E+00  0.000E+00  1.02696E+03  1.050E+00  1.200E+01  2.400E-01 -3.154E-02
   1   14    9     7     1    1.5000E+02  1.3386E+00   1.4866E+02  0.000E+00  0.000E+00  0.000E+00  1.03987E+03  2.288E+00  5.529E+01  5.593E-01  7.978E-01
   1   13    8     7     2    1.4866E+02  1.8388E+00   1.4682E+02  0.000E+00  0.000E+00  0.000E+00  1.03478E+03  2.279E+00  5.526E+01  6.148E-01  9.970E-01
   1   13    7     7     3    1.4682E+02  1.4721E+00   1.4535E+02  0.000E+00  0.000E+00  0.000E+00  1.02969E+03  2.270E+00  5.522E+01  5.584E-01  8.787E-01
   1   13    6     8     1    1.6480E+02  8.9618E-01   1.6391E+02  0.000E+00  0.000E+00  0.000E+00  1.02479E+03  2.915E+00  4.227E+01  4.307E-01  6.935E-01
   1   13    5     8     2    1.6391E+02  1.5789E-01   1.6375E+02  0.000E+00  0.000E+00  0.000E+00  1.01854E+03  2.912E+00  4.222E+01  4.302E-01  1.223E-01
   1   13    4     8     3    1.6375E+02 -2.4860E+00   1.6623E+02  0.000E+00  0.000E+00  0.000E+00  1.01229E+03  2.919E+00  4.233E+01  4.314E+00 -1.921E-01
   1   13    3     8     4    1.6623E+02 -3.6735E+00   1.6991E+02  0.000E+00  0.000E+00  0.000E+00  1.00606E+03  2.940E+00  4.262E+01  4.344E+00 -2.819E-01
   1   13    2     8     5    1.6991E+02 -2.5841E+00   1.7249E+02  0.000E+00  0.000E+00  0.000E+00  9.99835E+02  2.960E+00  4.292E+01  4.374E+00 -1.969E-01
   1   13    1     8     6    1.7249E+02 -1.9824E+00   1.7447E+02  0.000E+00  0.000E+00  0.000E+00  9.94850E+02  2.975E+00  4.313E+01  2.637E+00 -2.506E-01
   1    8    6     9     1    0.0000E+00  0.0000E+00   0.0000E+00  0.000E+00  0.000E+00  0.000E+00  1.07875E+03  0.000E+00  4.000E+00  0.000E+00  1.000E+00
   1    8    5     9     2    0.0000E+00  0.0000E+00   0.0000E+00  0.000E+00  0.000E+00  0.000E+00  1.07825E+03  0.000E+00  4.000E+00  0.000E+00  1.000E+00





UNSATURATED ZONE PACKAGE VOLUMETRIC BUDGET FOR  TIME STEP    30 STRESS PERIOD   25
  ------------------------------------------------------------------------------



     CUMULATIVE VOLUMES      L**3       RATES FOR THIS TIME STEP      L**3/T
     ------------------                 ------------------------

           IN:                                      IN:
           ---                                      ---
        INFILTRATION =  1029813902.1244          INFILTRATION =           0.8475

          OUT:                                     OUT:
          ----                                     ----
              UZF ET =   860799705.5196                UZF ET =           0.7500
        UZF RECHARGE =       73224.0000          UZF RECHARGE =       0.0000E+00

            IN - OUT =   168940972.6048              IN - OUT =       9.7500E-02

          STORAGE:                                 STORAGE:
          --------                                 --------
      STORAGE CHANGE =   169061175.2818        STORAGE CHANGE =       9.7500E-02

 PERCENT DISCREPANCY IS DIFFERENCE BETWEEN IN-OUT MINUS CHANGE IN STORAGE
 DIVIDED BY THE AVERAGE OF IN AND OUT TIMES 100

 PERCENT DISCREPANCY =          -0.00     PERCENT DISCREPANCY =           0.00






1
  VOLUMETRIC BUDGET FOR AGRICULTURAL FIELDS AT  END OF TIME STEP   30, STRESS PERIOD  25
  ------------------------------------------------------------------------------

     CUMULATIVE VOLUMES      L**3       RATES FOR THIS TIME STEP      L**3/T
     ------------------                 ------------------------

           IN:                                      IN:
           ---                                      ---
           AG WELLS      =   363470336.0000             AG WELLS      =           0.0000
      DIVERSION SEGMENTS =   612812416.0000        DIVERSION SEGMENTS =           0.0000
           GW IRRIGATION =           0.0000             GW IRRIGATION =           0.0000
           SW IRRIGATION =           0.0000             SW IRRIGATION =           0.0000
        SYSTEM LOSSES GW =           0.0000          SYSTEM LOSSES GW =           0.0000
        SYSTEM LOSSES SW =           0.0000          SYSTEM LOSSES SW =           0.0000

                TOTAL IN =   976282752.0000                  TOTAL IN =           0.0000

          OUT:                                     OUT:
          ----                                     ----
           AG WELLS      =           0.0000             AG WELLS      =           0.0000
      DIVERSION SEGMENTS =           0.0000        DIVERSION SEGMENTS =           0.0000
           GW IRRIGATION =   363470336.0000             GW IRRIGATION =           0.0000
           SW IRRIGATION =   612825280.0000             SW IRRIGATION =           0.0000
        SYSTEM LOSSES GW =           0.0000          SYSTEM LOSSES GW =           0.0000
        SYSTEM LOSSES SW =           0.0000          SYSTEM LOSSES SW =           0.0000

               TOTAL OUT =   976295616.0000                 TOTAL OUT =           0.0000

                IN - OUT =      -12864.0000                  IN - OUT =           0.0000

     PERCENT DISCREPANCY =          -0.00         PERCENT DISCREPANCY =           0.00



1
  VOLUMETRIC BUDGET FOR ENTIRE MODEL AT END OF TIME STEP   30, STRESS PERIOD  25
  ------------------------------------------------------------------------------

     CUMULATIVE VOLUMES      L**3       RATES FOR THIS TIME STEP      L**3/T
     ------------------                 ------------------------

           IN:                                      IN:
           ---                                      ---
             STORAGE     =   575267968.0000               STORAGE     =           6.2933
       CONSTANT HEAD     =           0.0000         CONSTANT HEAD     =           0.0000
     HEAD DEP BOUNDS     =    18063720.0000       HEAD DEP BOUNDS     =           0.2859
      STREAM LEAKAGE     =   750391040.0000        STREAM LEAKAGE     =          11.2166
        UZF RECHARGE     =       73223.9531          UZF RECHARGE     =           0.0000
               GW ET     =           0.0000                 GW ET     =           0.0000
     SURFACE LEAKAGE     =           0.0000       SURFACE LEAKAGE     =           0.0000
           AG WELLS      =           0.0000             AG WELLS      =           0.0000

                TOTAL IN =  1343795968.0000                  TOTAL IN =          17.7959

          OUT:                                     OUT:
          ----                                     ----
             STORAGE     =   275208032.0000               STORAGE     =           6.7583
       CONSTANT HEAD     =           0.0000         CONSTANT HEAD     =           0.0000
     HEAD DEP BOUNDS     =    18365410.0000       HEAD DEP BOUNDS     =           0.2889
      STREAM LEAKAGE     =   684536576.0000        STREAM LEAKAGE     =          10.7487
        UZF RECHARGE     =           0.0000          UZF RECHARGE     =           0.0000
               GW ET     =     2220319.5000                 GW ET     =           0.0000
     SURFACE LEAKAGE     =           0.0000       SURFACE LEAKAGE     =           0.0000
           AG WELLS      =   363470336.0000             AG WELLS      =           0.0000

               TOTAL OUT =  1343800576.0000                 TOTAL OUT =          17.7959

                IN - OUT =       -4608.0000                  IN - OUT =       3.8147E-06

     PERCENT DISCREPANCY =          -0.00         PERCENT DISCREPANCY =           0.00






         TIME SUMMARY AT END OF TIME STEP   30 IN STRESS PERIOD   25
                    SECONDS     MINUTES      HOURS       DAYS        YEARS
                    -----------------------------------------------------------
   TIME STEP LENGTH  87667.      1461.1      24.352      1.0147     2.77799E-03
 STRESS PERIOD TIME 2.63000E+06  43833.      730.56      30.440     8.33397E-02
         TOTAL TIME 6.32067E+07 1.05345E+06  17557.      731.56      2.0029    
1
1
                            STRESS PERIOD NO.   26, LENGTH =   2630000.    
                            -----------------------------------------------

                              NUMBER OF TIME STEPS =    30

                               MULTIPLIER FOR DELT =     1.000

                            INITIAL TIME STEP SIZE =   87666.66    

 REUSING NON-PARAMETER GHB CELLS FROM LAST STRESS PERIOD

      2 GHB CELLS

 REUSING STREAM SEGMENT DATA FROM LAST STRESS PERIOD



            AREAL INFILTRATION RATE
 READING ON UNIT   19 WITH FORMAT: (FREE)              

            1           2           3           4           5           6           7           8           9          10
 ........................................................................................................................
   1   1.0000E-10  2.0000E-10   0.000       0.000       0.000       0.000       0.000       0.000       0.000       0.000    
   2   2.0000E-10  1.0000E-10  2.0000E-10   0.000       0.000      8.0000E-10  8.0000E-10  5.0000E-10   0.000       0.000    
   3    0.000      5.0000E-10  1.0000E-10  1.0000E-10  8.0000E-10  8.0000E-10  5.0000E-10  5.0000E-10   0.000       0.000    
   4   8.0000E-10  5.0000E-10  1.0000E-10  1.0000E-10  1.0000E-10  1.0000E-10  1.0000E-10  1.0000E-10  2.0000E-10   0.000    
   5   8.0000E-10  5.0000E-10  1.0000E-10  1.0000E-10  1.0000E-10  1.0000E-10  1.0000E-10  1.0000E-10  1.0000E-10  1.0000E-10
   6   8.0000E-10  5.0000E-10  5.0000E-10  2.0000E-10  2.0000E-10  1.0000E-10  1.0000E-10  1.0000E-10  1.0000E-10  5.0000E-10
   7   8.0000E-10  5.0000E-10  5.0000E-10  2.0000E-10  2.0000E-10  1.0000E-10  1.0000E-10  2.0000E-10  2.0000E-10   0.000    
   8    0.000      5.0000E-10  5.0000E-10  2.0000E-10  2.0000E-10  1.0000E-10  1.0000E-10  2.0000E-10  5.0000E-10   0.000    
   9    0.000      5.0000E-10  5.0000E-10  2.0000E-10  2.0000E-10  1.0000E-10  1.0000E-10  2.0000E-10  5.0000E-10   0.000    
  10    0.000      5.0000E-10  5.0000E-10  2.0000E-10  2.0000E-10  1.0000E-10  1.0000E-10  2.0000E-10  5.0000E-10  8.0000E-10
  11    0.000      1.0000E-10  1.0000E-10  1.0000E-10  1.0000E-10  1.0000E-10  1.0000E-10  2.0000E-10  5.0000E-10   0.000    
  12   1.0000E-10  1.0000E-10  1.0000E-10  1.0000E-10  1.0000E-10  1.0000E-10  1.0000E-10  1.0000E-10  2.0000E-10   0.000    
  13   1.0000E-10  1.0000E-10  2.0000E-10  2.0000E-10  2.0000E-10  2.0000E-10  2.0000E-10  1.0000E-10  1.0000E-10   0.000    
  14    0.000      2.0000E-10  5.0000E-10  5.0000E-10  5.0000E-10  5.0000E-10  5.0000E-10  2.0000E-10  1.0000E-10   0.000    
  15    0.000       0.000      8.0000E-10  8.0000E-10  8.0000E-10  8.0000E-10   0.000       0.000       0.000       0.000    

                  ET RATE =  5.000000E-10

 USING ET EXTINCTION DEPTH FROM PREVIOUS STRESS PERIOD. CURRENT PERIOD IS:      26

 USING EXTINCTION WATER CONTENT FROM PREVIOUS STRESS PERIOD. CURRENT PERIOD IS:      26

 USING AIR ENTRY PRESSURE FROM PREVIOUS STRESS PERIOD. CURRENT PERIOD IS:      26

 USING ROOT PRESSURE HEAD FROM PREVIOUS STRESS PERIOD. CURRENT PERIOD IS:      26

 USING ROOT ACTIVITY FROM PREVIOUS STRESS PERIOD. CURRENT PERIOD IS:      26

 PROCESSING AG STRESS PERIOD DATA

 READING AG STRESS PERIOD DATA

 READING IRRIGATION SEGMENT

 READING IRRIGATION WELL

 READING SUPPLEMENTAL WELL

 END PROCESSING AG STRESS PERIOD DATA OPTIONS
 
 SOLVING FOR HEAD 
                                                   Max.-Head-Change                         Max.-Flux-Residual
  Residual-Control   Outer-Iter.   Inner-Iter.     Column Row Layer    Maximum-Head-Change  Column Row Layer    Maximum-Flux-Residual          L2-NORM 
          0                 1           2             4    7     1       0.1987557881E-01       4    7    1         0.1046343617E+01      0.2265615382E+01
          0                 2           2             4    7     1      -0.1933360525E-02       4    7    1        -0.1046349482E+00      0.2265587476E+00
          0                 3           2             4    7     1       0.1316545995E-03       4    7    1         0.7324443996E-02      0.1585883386E-01
          0                 4           1             4    7     1      -0.5238660179E-05       4    7    1        -0.2995702025E-03      0.6486133385E-03

    ------------------------------------------------
       NWT REQUIRED            4 OUTER ITERATIONS 
       AND A TOTAL OF          7 INNER ITERATIONS.
    ------------------------------------------------

 NO OUTPUT CONTROL FOR STRESS PERIOD   26   TIME STEP    1
 
 SOLVING FOR HEAD 
                                                   Max.-Head-Change                         Max.-Flux-Residual
  Residual-Control   Outer-Iter.   Inner-Iter.     Column Row Layer    Maximum-Head-Change  Column Row Layer    Maximum-Flux-Residual          L2-NORM 
          0                 1           2             4    7     1       0.1961784508E-01       4    7    1         0.1032712451E+01      0.2237240248E+01
          0                 2           2             4    7     1      -0.1908289835E-02       4    7    1        -0.1032718164E+00      0.2237234816E+00
          0                 3           2             4    7     1       0.1299473806E-03       4    7    1         0.7229024865E-02      0.1566056831E-01
          0                 4           1             4    7     1      -0.5170728218E-05       4    7    1        -0.2956675462E-03      0.6405196413E-03

    ------------------------------------------------
       NWT REQUIRED            4 OUTER ITERATIONS 
       AND A TOTAL OF          7 INNER ITERATIONS.
    ------------------------------------------------

 NO OUTPUT CONTROL FOR STRESS PERIOD   26   TIME STEP    2
 
 SOLVING FOR HEAD 
                                                   Max.-Head-Change                         Max.-Flux-Residual
  Residual-Control   Outer-Iter.   Inner-Iter.     Column Row Layer    Maximum-Head-Change  Column Row Layer    Maximum-Flux-Residual          L2-NORM 
          0                 1           2             4    7     1       0.1936461494E-01       4    7    1         0.1019319807E+01      0.2212999448E+01
          0                 2           2             4    7     1      -0.1883657228E-02       4    7    1        -0.1019325371E+00      0.2212993962E+00
          0                 3           1             4    7     1       0.1282699958E-03       4    7    1         0.7135275416E-02      0.1549101390E-01
          0                 4           1             4    7     1      -0.5103985639E-05       4    7    1        -0.2918332013E-03      0.6335655104E-03

    ------------------------------------------------
       NWT REQUIRED            4 OUTER ITERATIONS 
       AND A TOTAL OF          6 INNER ITERATIONS.
    ------------------------------------------------

 NO OUTPUT CONTROL FOR STRESS PERIOD   26   TIME STEP    3
 
 SOLVING FOR HEAD 
                                                   Max.-Head-Change                         Max.-Flux-Residual
  Residual-Control   Outer-Iter.   Inner-Iter.     Column Row Layer    Maximum-Head-Change  Column Row Layer    Maximum-Flux-Residual          L2-NORM 
          0                 1           2             4    7     1       0.1911593007E-01       4    7    1         0.1006168026E+01      0.2189305589E+01
          0                 2           2             4    7     1      -0.1859466757E-02       4    7    1        -0.1006173445E+00      0.2189301282E+00
          0                 3           1             4    7     1       0.1266227162E-03       4    7    1         0.7043212029E-02      0.1532503182E-01
          0                 4           1             4    7     1      -0.5038438661E-05       4    7    1        -0.2880677953E-03      0.6267851174E-03

    ------------------------------------------------
       NWT REQUIRED            4 OUTER ITERATIONS 
       AND A TOTAL OF          6 INNER ITERATIONS.
    ------------------------------------------------

 NO OUTPUT CONTROL FOR STRESS PERIOD   26   TIME STEP    4
 
 SOLVING FOR HEAD 
                                                   Max.-Head-Change                         Max.-Flux-Residual
  Residual-Control   Outer-Iter.   Inner-Iter.     Column Row Layer    Maximum-Head-Change  Column Row Layer    Maximum-Flux-Residual          L2-NORM 
          0                 1           2             4    7     1       0.1887155990E-01       4    7    1         0.9932445508E+00      0.2166024827E+01
          0                 2           2             4    7     1      -0.1835696629E-02       4    7    1        -0.9932498300E-01      0.2166400656E+00
          0                 3           1             4    7     1       0.1250040607E-03       4    7    1         0.6952746826E-02      0.1516474876E-01
          0                 4           1             4    7     1      -0.4974030640E-05       4    7    1        -0.2843677535E-03      0.6202328765E-03

    ------------------------------------------------
       NWT REQUIRED            4 OUTER ITERATIONS 
       AND A TOTAL OF          6 INNER ITERATIONS.
    ------------------------------------------------

 NO OUTPUT CONTROL FOR STRESS PERIOD   26   TIME STEP    5
 
 SOLVING FOR HEAD 
                                                   Max.-Head-Change                         Max.-Flux-Residual
  Residual-Control   Outer-Iter.   Inner-Iter.     Column Row Layer    Maximum-Head-Change  Column Row Layer    Maximum-Flux-Residual          L2-NORM 
          0                 1           2             4    7     1       0.1863140713E-01       4    7    1         0.9805447530E+00      0.2143105341E+01
          0                 2           2             4    7     1      -0.1812335479E-02       4    7    1        -0.9805498957E-01      0.2143104449E+00
          0                 3           1             4    7     1       0.1234132551E-03       4    7    1         0.6863847373E-02      0.1500169652E-01
          0                 4           1             4    7     1      -0.4910731298E-05       4    7    1        -0.2807317690E-03      0.6135762060E-03

    ------------------------------------------------
       NWT REQUIRED            4 OUTER ITERATIONS 
       AND A TOTAL OF          6 INNER ITERATIONS.
    ------------------------------------------------

 NO OUTPUT CONTROL FOR STRESS PERIOD   26   TIME STEP    6
 
 SOLVING FOR HEAD 
                                                   Max.-Head-Change                         Max.-Flux-Residual
  Residual-Control   Outer-Iter.   Inner-Iter.     Column Row Layer    Maximum-Head-Change  Column Row Layer    Maximum-Flux-Residual          L2-NORM 
          0                 1           2             4    7     1       0.1839538281E-01       4    7    1         0.9680636877E+00      0.2120564561E+01
          0                 2           2             4    7     1      -0.1789376552E-02       4    7    1        -0.9680686978E-01      0.2120564900E+00
          0                 3           1             4    7     1       0.1218498391E-03       4    7    1         0.6776479073E-02      0.1484392921E-01
          0                 4           1             4    7     1      -0.4848521639E-05       4    7    1        -0.2771584036E-03      0.6071226465E-03

    ------------------------------------------------
       NWT REQUIRED            4 OUTER ITERATIONS 
       AND A TOTAL OF          6 INNER ITERATIONS.
    ------------------------------------------------

 NO OUTPUT CONTROL FOR STRESS PERIOD   26   TIME STEP    7
 
 SOLVING FOR HEAD 
                                                   Max.-Head-Change                         Max.-Flux-Residual
  Residual-Control   Outer-Iter.   Inner-Iter.     Column Row Layer    Maximum-Head-Change  Column Row Layer    Maximum-Flux-Residual          L2-NORM 
          0                 1           2             4    7     1       0.1816353674E-01       4    7    1         0.9558040022E+00      0.2098404498E+01
          0                 2           2             4    7     1      -0.1766824061E-02       4    7    1        -0.9558088835E-01      0.2098405670E+00
          0                 3           1             4    7     1       0.1203140999E-03       4    7    1         0.6690660445E-02      0.1468881546E-01
          0                 4           1             4    7     1      -0.4787413060E-05       4    7    1        -0.2736484169E-03      0.6007726611E-03

    ------------------------------------------------
       NWT REQUIRED            4 OUTER ITERATIONS 
       AND A TOTAL OF          6 INNER ITERATIONS.
    ------------------------------------------------

 NO OUTPUT CONTROL FOR STRESS PERIOD   26   TIME STEP    8
 
 SOLVING FOR HEAD 
                                                   Max.-Head-Change                         Max.-Flux-Residual
  Residual-Control   Outer-Iter.   Inner-Iter.     Column Row Layer    Maximum-Head-Change  Column Row Layer    Maximum-Flux-Residual          L2-NORM 
          0                 1           2             4    7     1       0.1793577037E-01       4    7    1         0.9437609535E+00      0.2076614467E+01
          0                 2           2             4    7     1      -0.1744668419E-02       4    7    1        -0.9437657098E-01      0.2076615417E+00
          0                 3           1             4    7     1       0.1188053847E-03       4    7    1         0.6606358317E-02      0.1453628873E-01
          0                 4           1             4    7     1      -0.4727379773E-05       4    7    1        -0.2702004490E-03      0.5945378235E-03

    ------------------------------------------------
       NWT REQUIRED            4 OUTER ITERATIONS 
       AND A TOTAL OF          6 INNER ITERATIONS.
    ------------------------------------------------

 NO OUTPUT CONTROL FOR STRESS PERIOD   26   TIME STEP    9
 
 SOLVING FOR HEAD 
                                                   Max.-Head-Change                         Max.-Flux-Residual
  Residual-Control   Outer-Iter.   Inner-Iter.     Column Row Layer    Maximum-Head-Change  Column Row Layer    Maximum-Flux-Residual          L2-NORM 
          0                 1           2             4    7     1       0.1771186016E-01       4    7    1         0.9319220705E+00      0.2055183392E+01
          0                 2           2             4    7     1      -0.1722887881E-02       4    7    1        -0.9319267052E-01      0.2055185790E+00
          0                 3           1             4    7     1       0.1173222124E-03       4    7    1         0.6523485371E-02      0.1438628631E-01
          0                 4           1             4    7     1      -0.4668362717E-05       4    7    1        -0.2668109335E-03      0.5883934486E-03

    ------------------------------------------------
       NWT REQUIRED            4 OUTER ITERATIONS 
       AND A TOTAL OF          6 INNER ITERATIONS.
    ------------------------------------------------

 NO OUTPUT CONTROL FOR STRESS PERIOD   26   TIME STEP   10
 
 SOLVING FOR HEAD 
                                                   Max.-Head-Change                         Max.-Flux-Residual
  Residual-Control   Outer-Iter.   Inner-Iter.     Column Row Layer    Maximum-Head-Change  Column Row Layer    Maximum-Flux-Residual          L2-NORM 
          0                 1           2             4    7     1       0.1749186339E-01       4    7    1         0.9202904838E+00      0.2034110444E+01
          0                 2           2             4    7     1      -0.1701488020E-02       4    7    1        -0.9202950004E-01      0.2034113353E+00
          0                 3           1             4    7     1       0.1158649632E-03       4    7    1         0.6442063516E-02      0.1423879170E-01
          0                 4           1             4    7     1      -0.4610377665E-05       4    7    1        -0.2634807865E-03      0.5823614878E-03

    ------------------------------------------------
       NWT REQUIRED            4 OUTER ITERATIONS 
       AND A TOTAL OF          6 INNER ITERATIONS.
    ------------------------------------------------

 NO OUTPUT CONTROL FOR STRESS PERIOD   26   TIME STEP   11
 
 SOLVING FOR HEAD 
                                                   Max.-Head-Change                         Max.-Flux-Residual
  Residual-Control   Outer-Iter.   Inner-Iter.     Column Row Layer    Maximum-Head-Change  Column Row Layer    Maximum-Flux-Residual          L2-NORM 
          0                 1           2             4    7     1       0.1727555681E-01       4    7    1         0.9088544429E+00      0.2013372885E+01
          0                 2           2             4    7     1      -0.1680447118E-02       4    7    1        -0.9088588446E-01      0.2013375779E+00
          0                 3           1             4    7     1       0.1144321573E-03       4    7    1         0.6362010490E-02      0.1409362881E-01
          0                 4           1             4    7     1      -0.4553364865E-05       4    7    1        -0.2602066104E-03      0.5764226129E-03

    ------------------------------------------------
       NWT REQUIRED            4 OUTER ITERATIONS 
       AND A TOTAL OF          6 INNER ITERATIONS.
    ------------------------------------------------

 NO OUTPUT CONTROL FOR STRESS PERIOD   26   TIME STEP   12
 
 SOLVING FOR HEAD 
                                                   Max.-Head-Change                         Max.-Flux-Residual
  Residual-Control   Outer-Iter.   Inner-Iter.     Column Row Layer    Maximum-Head-Change  Column Row Layer    Maximum-Flux-Residual          L2-NORM 
          0                 1           2             4    7     1       0.1706299181E-01       4    7    1         0.8976170933E+00      0.1992973268E+01
          0                 2           2             4    7     1      -0.1659770175E-02       4    7    1        -0.8976213833E-01      0.1992976300E+00
          0                 3           1             4    7     1       0.1130241360E-03       4    7    1         0.6283348352E-02      0.1395083066E-01
          0                 4           1             4    7     1      -0.4497338479E-05       4    7    1        -0.2569893284E-03      0.5705927973E-03

    ------------------------------------------------
       NWT REQUIRED            4 OUTER ITERATIONS 
       AND A TOTAL OF          6 INNER ITERATIONS.
    ------------------------------------------------

 NO OUTPUT CONTROL FOR STRESS PERIOD   26   TIME STEP   13
 
 SOLVING FOR HEAD 
                                                   Max.-Head-Change                         Max.-Flux-Residual
  Residual-Control   Outer-Iter.   Inner-Iter.     Column Row Layer    Maximum-Head-Change  Column Row Layer    Maximum-Flux-Residual          L2-NORM 
          0                 1           2             4    7     1       0.1685422696E-01       4    7    1         0.8865811012E+00      0.1972912206E+01
          0                 2           2             4    7     1      -0.1639462887E-02       4    7    1        -0.8865852830E-01      0.1972915204E+00
          0                 3           1             4    7     1       0.1116412860E-03       4    7    1         0.6206095697E-02      0.1381041301E-01
          0                 4           1             4    7     1      -0.4442313473E-05       4    7    1        -0.2538296765E-03      0.5648465502E-03

    ------------------------------------------------
       NWT REQUIRED            4 OUTER ITERATIONS 
       AND A TOTAL OF          6 INNER ITERATIONS.
    ------------------------------------------------

 NO OUTPUT CONTROL FOR STRESS PERIOD   26   TIME STEP   14
 
 SOLVING FOR HEAD 
                                                   Max.-Head-Change                         Max.-Flux-Residual
  Residual-Control   Outer-Iter.   Inner-Iter.     Column Row Layer    Maximum-Head-Change  Column Row Layer    Maximum-Flux-Residual          L2-NORM 
          0                 1           2             4    7     1       0.1664890320E-01       4    7    1         0.8757274180E+00      0.1953169534E+01
          0                 2           2             4    7     1      -0.1619490328E-02       4    7    1        -0.8757314942E-01      0.1953172439E+00
          0                 3           1             4    7     1       0.1102812303E-03       4    7    1         0.6130119237E-02      0.1367220744E-01
          0                 4           1             4    7     1      -0.4388195672E-05       4    7    1        -0.2507222364E-03      0.5591904018E-03

    ------------------------------------------------
       NWT REQUIRED            4 OUTER ITERATIONS 
       AND A TOTAL OF          6 INNER ITERATIONS.
    ------------------------------------------------

 NO OUTPUT CONTROL FOR STRESS PERIOD   26   TIME STEP   15
 
 SOLVING FOR HEAD 
                                                   Max.-Head-Change                         Max.-Flux-Residual
  Residual-Control   Outer-Iter.   Inner-Iter.     Column Row Layer    Maximum-Head-Change  Column Row Layer    Maximum-Flux-Residual          L2-NORM 
          0                 1           2             4    7     1       0.1644708136E-01       4    7    1         0.8650595122E+00      0.1933732729E+01
          0                 2           2             4    7     1      -0.1599858415E-02       4    7    1        -0.8650634860E-01      0.1933735518E+00
          0                 3           1             4    7     1       0.1089443715E-03       4    7    1         0.6055443259E-02      0.1353614673E-01
          0                 4           1             4    7     1      -0.4335000849E-05       4    7    1        -0.2476679870E-03      0.5545347264E-03

    ------------------------------------------------
       NWT REQUIRED            4 OUTER ITERATIONS 
       AND A TOTAL OF          6 INNER ITERATIONS.
    ------------------------------------------------

 NO OUTPUT CONTROL FOR STRESS PERIOD   26   TIME STEP   16
 
 SOLVING FOR HEAD 
                                                   Max.-Head-Change                         Max.-Flux-Residual
  Residual-Control   Outer-Iter.   Inner-Iter.     Column Row Layer    Maximum-Head-Change  Column Row Layer    Maximum-Flux-Residual          L2-NORM 
          0                 1           2             4    7     1       0.1624868812E-01       4    7    1         0.8545731758E+00      0.1914603811E+01
          0                 2           2             4    7     1      -0.1580560016E-02       4    7    1        -0.8545770502E-01      0.1914606427E+00
          0                 3           1             4    7     1       0.1076302236E-03       4    7    1         0.5982038272E-02      0.1340224949E-01
          0                 4           1             4    7     1      -0.4282709778E-05       4    7    1        -0.2446657254E-03      0.5481504505E-03

    ------------------------------------------------
       NWT REQUIRED            4 OUTER ITERATIONS 
       AND A TOTAL OF          6 INNER ITERATIONS.
    ------------------------------------------------

 NO OUTPUT CONTROL FOR STRESS PERIOD   26   TIME STEP   17
 
 SOLVING FOR HEAD 
                                                   Max.-Head-Change                         Max.-Flux-Residual
  Residual-Control   Outer-Iter.   Inner-Iter.     Column Row Layer    Maximum-Head-Change  Column Row Layer    Maximum-Flux-Residual          L2-NORM 
          0                 1           2             4    7     1       0.1605364230E-01       4    7    1         0.8442646075E+00      0.1895775362E+01
          0                 2           2             4    7     1      -0.1561587233E-02       4    7    1        -0.8442683849E-01      0.1895777742E+00
          0                 3           1             4    7     1       0.1063382486E-03       4    7    1         0.5909877670E-02      0.1327044116E-01
          0                 4           1             4    7     1      -0.4231300469E-05       4    7    1        -0.2417143435E-03      0.5427610810E-03

    ------------------------------------------------
       NWT REQUIRED            4 OUTER ITERATIONS 
       AND A TOTAL OF          6 INNER ITERATIONS.
    ------------------------------------------------

 NO OUTPUT CONTROL FOR STRESS PERIOD   26   TIME STEP   18
 
 SOLVING FOR HEAD 
                                                   Max.-Head-Change                         Max.-Flux-Residual
  Residual-Control   Outer-Iter.   Inner-Iter.     Column Row Layer    Maximum-Head-Change  Column Row Layer    Maximum-Flux-Residual          L2-NORM 
          0                 1           2             4    7     1       0.1586187429E-01       4    7    1         0.8341295980E+00      0.1877245940E+01
          0                 2           2             4    7     1      -0.1542933295E-02       4    7    1        -0.8341332813E-01      0.1877247786E+00
          0                 3           1             4    7     1       0.1050679859E-03       4    7    1         0.5838932000E-02      0.1314070839E-01
          0                 4           1             4    7     1      -0.4180755768E-05       4    7    1        -0.2388126688E-03      0.5374555144E-03

    ------------------------------------------------
       NWT REQUIRED            4 OUTER ITERATIONS 
       AND A TOTAL OF          6 INNER ITERATIONS.
    ------------------------------------------------

 NO OUTPUT CONTROL FOR STRESS PERIOD   26   TIME STEP   19
 
 SOLVING FOR HEAD 
                                                   Max.-Head-Change                         Max.-Flux-Residual
  Residual-Control   Outer-Iter.   Inner-Iter.     Column Row Layer    Maximum-Head-Change  Column Row Layer    Maximum-Flux-Residual          L2-NORM 
          0                 1           2             4    7     1       0.1567331367E-01       4    7    1         0.8241645378E+00      0.1859003920E+01
          0                 2           2             4    7     1      -0.1524591353E-02       4    7    1        -0.8241681296E-01      0.1859005736E+00
          0                 3           1             4    7     1       0.1038189686E-03       4    7    1         0.5769175987E-02      0.1301321936E-01
          0                 4           1             4    7     1      -0.4131055644E-05       4    7    1        -0.2359596256E-03      0.5487812855E-03

    ------------------------------------------------
       NWT REQUIRED            4 OUTER ITERATIONS 
       AND A TOTAL OF          6 INNER ITERATIONS.
    ------------------------------------------------

 NO OUTPUT CONTROL FOR STRESS PERIOD   26   TIME STEP   20
 
 SOLVING FOR HEAD 
                                                   Max.-Head-Change                         Max.-Flux-Residual
  Residual-Control   Outer-Iter.   Inner-Iter.     Column Row Layer    Maximum-Head-Change  Column Row Layer    Maximum-Flux-Residual          L2-NORM 
          0                 1           2             4    7     1       0.1548789004E-01       4    7    1         0.8143657766E+00      0.1841042549E+01
          0                 2           2             4    7     1      -0.1506554559E-02       4    7    1        -0.8143692796E-01      0.1841044142E+00
          0                 3           1             4    7     1       0.1025907316E-03       4    7    1         0.5700584102E-02      0.1288730091E-01
          0                 4           1             4    7     1      -0.4082183517E-05       4    7    1        -0.2331542355E-03      0.5271072978E-03

    ------------------------------------------------
       NWT REQUIRED            4 OUTER ITERATIONS 
       AND A TOTAL OF          6 INNER ITERATIONS.
    ------------------------------------------------

 NO OUTPUT CONTROL FOR STRESS PERIOD   26   TIME STEP   21
 
 SOLVING FOR HEAD 
                                                   Max.-Head-Change                         Max.-Flux-Residual
  Residual-Control   Outer-Iter.   Inner-Iter.     Column Row Layer    Maximum-Head-Change  Column Row Layer    Maximum-Flux-Residual          L2-NORM 
          0                 1           2             4    7     1       0.1530566590E-01       4    7    1         0.8047370276E+00      0.1823350398E+01
          0                 2           2             4    7     1      -0.1488828991E-02       4    7    1        -0.8047404442E-01      0.1823351589E+00
          0                 3           1             4    7     1       0.1013836874E-03       4    7    1         0.5633182310E-02      0.1276344806E-01
          0                 4           1             4    7     1      -0.4034153894E-05       4    7    1        -0.2303974918E-03      0.5220237396E-03

    ------------------------------------------------
       NWT REQUIRED            4 OUTER ITERATIONS 
       AND A TOTAL OF          6 INNER ITERATIONS.
    ------------------------------------------------

 NO OUTPUT CONTROL FOR STRESS PERIOD   26   TIME STEP   22
 
 SOLVING FOR HEAD 
                                                   Max.-Head-Change                         Max.-Flux-Residual
  Residual-Control   Outer-Iter.   Inner-Iter.     Column Row Layer    Maximum-Head-Change  Column Row Layer    Maximum-Flux-Residual          L2-NORM 
          0                 1           2             4    7     1       0.1512643662E-01       4    7    1         0.7952668035E+00      0.1805936728E+01
          0                 2           2             4    7     1      -0.1471394745E-02       4    7    1        -0.7952701361E-01      0.1805937635E+00
          0                 3           1             4    7     1       0.1001964813E-03       4    7    1         0.5566890218E-02      0.1264154745E-01
          0                 4           1             4    7     1      -0.3986914046E-05       4    7    1        -0.2276861376E-03      0.5170547662E-03

    ------------------------------------------------
       NWT REQUIRED            4 OUTER ITERATIONS 
       AND A TOTAL OF          6 INNER ITERATIONS.
    ------------------------------------------------

 NO OUTPUT CONTROL FOR STRESS PERIOD   26   TIME STEP   23
 
 SOLVING FOR HEAD 
                                                   Max.-Head-Change                         Max.-Flux-Residual
  Residual-Control   Outer-Iter.   Inner-Iter.     Column Row Layer    Maximum-Head-Change  Column Row Layer    Maximum-Flux-Residual          L2-NORM 
          0                 1           2             4    7     1       0.1495013570E-01       4    7    1         0.7859518591E+00      0.1788779546E+01
          0                 2           2             4    7     1      -0.1454245352E-02       4    7    1        -0.7859551099E-01      0.1788780015E+00
          0                 3           1             4    7     1       0.9902867202E-04       4    7    1         0.5501685070E-02      0.1252144218E-01

    ------------------------------------------------
       NWT REQUIRED            3 OUTER ITERATIONS 
       AND A TOTAL OF          5 INNER ITERATIONS.
    ------------------------------------------------

 NO OUTPUT CONTROL FOR STRESS PERIOD   26   TIME STEP   24
 
 SOLVING FOR HEAD 
                                                   Max.-Head-Change                         Max.-Flux-Residual
  Residual-Control   Outer-Iter.   Inner-Iter.     Column Row Layer    Maximum-Head-Change  Column Row Layer    Maximum-Flux-Residual          L2-NORM 
          0                 1           2             4    7     1       0.1477677842E-01       4    7    1         0.7767929794E+00      0.1771880926E+01
          0                 2           2             4    7     1      -0.1437382298E-02       4    7    1        -0.7767961509E-01      0.1771881222E+00
          0                 3           1             4    7     1       0.9788036171E-04       4    7    1         0.5437572403E-02      0.1240315440E-01

    ------------------------------------------------
       NWT REQUIRED            3 OUTER ITERATIONS 
       AND A TOTAL OF          5 INNER ITERATIONS.
    ------------------------------------------------

 NO OUTPUT CONTROL FOR STRESS PERIOD   26   TIME STEP   25
 
 SOLVING FOR HEAD 
                                                   Max.-Head-Change                         Max.-Flux-Residual
  Residual-Control   Outer-Iter.   Inner-Iter.     Column Row Layer    Maximum-Head-Change  Column Row Layer    Maximum-Flux-Residual          L2-NORM 
          0                 1           2             4    7     1       0.1460621984E-01       4    7    1         0.7677825391E+00      0.1755238334E+01
          0                 2           2             4    7     1      -0.1420791486E-02       4    7    1        -0.7677856333E-01      0.1755238259E+00
          0                 3           1             4    7     1       0.9675059025E-04       4    7    1         0.5374498830E-02      0.1228665148E-01

    ------------------------------------------------
       NWT REQUIRED            3 OUTER ITERATIONS 
       AND A TOTAL OF          5 INNER ITERATIONS.
    ------------------------------------------------

 NO OUTPUT CONTROL FOR STRESS PERIOD   26   TIME STEP   26
 
 SOLVING FOR HEAD 
                                                   Max.-Head-Change                         Max.-Flux-Residual
  Residual-Control   Outer-Iter.   Inner-Iter.     Column Row Layer    Maximum-Head-Change  Column Row Layer    Maximum-Flux-Residual          L2-NORM 
          0                 1           2             4    7     1       0.1443853736E-01       4    7    1         0.7589245717E+00      0.1738840814E+01
          0                 2           2             4    7     1      -0.1404480442E-02       4    7    1        -0.7589275909E-01      0.1738840487E+00
          0                 3           1             4    7     1       0.9563986945E-04       4    7    1         0.5312492566E-02      0.1217186553E-01

    ------------------------------------------------
       NWT REQUIRED            3 OUTER ITERATIONS 
       AND A TOTAL OF          5 INNER ITERATIONS.
    ------------------------------------------------

 NO OUTPUT CONTROL FOR STRESS PERIOD   26   TIME STEP   27
 
 SOLVING FOR HEAD 
                                                   Max.-Head-Change                         Max.-Flux-Residual
  Residual-Control   Outer-Iter.   Inner-Iter.     Column Row Layer    Maximum-Head-Change  Column Row Layer    Maximum-Flux-Residual          L2-NORM 
          0                 1           2             4    7     1       0.1427353385E-01       4    7    1         0.7502083598E+00      0.1722694229E+01
          0                 2           2             4    7     1      -0.1388429991E-02       4    7    1        -0.7502113058E-01      0.1722693707E+00
          0                 3           1             4    7     1       0.9454689465E-04       4    7    1         0.5251478629E-02      0.1205884396E-01

    ------------------------------------------------
       NWT REQUIRED            3 OUTER ITERATIONS 
       AND A TOTAL OF          5 INNER ITERATIONS.
    ------------------------------------------------

 NO OUTPUT CONTROL FOR STRESS PERIOD   26   TIME STEP   28
 
 SOLVING FOR HEAD 
                                                   Max.-Head-Change                         Max.-Flux-Residual
  Residual-Control   Outer-Iter.   Inner-Iter.     Column Row Layer    Maximum-Head-Change  Column Row Layer    Maximum-Flux-Residual          L2-NORM 
          0                 1           2             4    7     1       0.1411128300E-01       4    7    1         0.7416384133E+00      0.1706780058E+01
          0                 2           2             4    7     1      -0.1372647302E-02       4    7    1        -0.7416412883E-01      0.1706779298E+00
          0                 3           1             4    7     1       0.9347215280E-04       4    7    1         0.5191488535E-02      0.1194743563E-01

    ------------------------------------------------
       NWT REQUIRED            3 OUTER ITERATIONS 
       AND A TOTAL OF          5 INNER ITERATIONS.
    ------------------------------------------------

 NO OUTPUT CONTROL FOR STRESS PERIOD   26   TIME STEP   29
 
 SOLVING FOR HEAD 
                                                   Max.-Head-Change                         Max.-Flux-Residual
  Residual-Control   Outer-Iter.   Inner-Iter.     Column Row Layer    Maximum-Head-Change  Column Row Layer    Maximum-Flux-Residual          L2-NORM 
          0                 1           2             4    7     1       0.1395158712E-01       4    7    1         0.7332038217E+00      0.1691092873E+01
          0                 2           2             4    7     1      -0.1357113146E-02       4    7    1        -0.7332066277E-01      0.1691091721E+00
          0                 3           1             4    7     1       0.9241433546E-04       4    7    1         0.5132445957E-02      0.1183761505E-01

    ------------------------------------------------
       NWT REQUIRED            3 OUTER ITERATIONS 
       AND A TOTAL OF          5 INNER ITERATIONS.
    ------------------------------------------------

 NO OUTPUT CONTROL FOR STRESS PERIOD   26   TIME STEP   30



 STREAM LISTING     PERIOD     26   STEP       30

 LAYER ROW COL. STREAM  RCH.  FLOW INTO     FLOW TO   FLOW OUT OF   OVRLND.     DIRECT     STREAM       STREAM     STREAM     STREAM   STREAMBED  STREAMBED
                SEG.NO.  NO.  STRM. RCH.    AQUIFER    STRM. RCH.    RUNOFF     PRECIP       ET          HEAD       DEPTH      WIDTH   CONDCTNC.   GRADIENT

   1    1    1     1     1    1.6500E+01  1.9759E-01   1.6303E+01  0.000E+00  0.000E+00  0.000E+00  1.09409E+03  1.039E+00  1.087E+01  4.893E-02  1.346E+00
   1    2    2     1     2    1.6303E+01  3.0466E-01   1.5998E+01  0.000E+00  0.000E+00  0.000E+00  1.08909E+03  1.034E+00  1.079E+01  7.552E-02  1.345E+00
   1    3    3     1     3    1.5998E+01  2.5853E-01   1.5739E+01  0.000E+00  0.000E+00  0.000E+00  1.08345E+03  1.029E+00  1.070E+01  6.417E-02  1.343E+00
   1    3    4     1     4    1.5739E+01  2.3700E-01   1.5502E+01  0.000E+00  0.000E+00  0.000E+00  1.07843E+03  1.024E+00  1.061E+01  5.890E-02  1.341E+00
   1    4    5     2     1    1.3502E+01  2.9865E-01   1.3204E+01  0.000E+00  0.000E+00  0.000E+00  1.07276E+03  8.289E-01  1.200E+01  7.800E-02  1.276E+00
   1    5    6     2     2    1.3204E+01  2.2914E-01   1.2975E+01  0.000E+00  0.000E+00  0.000E+00  1.06733E+03  8.190E-01  1.200E+01  6.000E-02  1.273E+00
   1    6    6     2     3    1.2975E+01  2.2862E-01   1.2746E+01  0.000E+00  0.000E+00  0.000E+00  1.06260E+03  8.104E-01  1.200E+01  6.000E-02  1.270E+00
   1    7    6     2     4    1.2746E+01  2.2810E-01   1.2518E+01  0.000E+00  0.000E+00  0.000E+00  1.05788E+03  8.017E-01  1.200E+01  6.000E-02  1.267E+00
   1    8    6     2     5    1.2518E+01  2.2758E-01   1.2290E+01  0.000E+00  0.000E+00  0.000E+00  1.05315E+03  7.930E-01  1.200E+01  6.000E-02  1.264E+00
   1    3    5     3     1    2.0000E+00  2.8252E-01   1.7175E+00  0.000E+00  0.000E+00  0.000E+00  1.07555E+03  1.909E+00  9.636E+00  7.227E-02  1.955E+00
   1    3    6     3     2    1.7175E+00  2.4905E-01   1.4684E+00  0.000E+00  0.000E+00  0.000E+00  1.07264E+03  1.727E+00  8.909E+00  6.682E-02  1.864E+00
   1    3    7     3     3    1.4684E+00  1.9718E-01   1.2712E+00  0.000E+00  0.000E+00  0.000E+00  1.06987E+03  1.555E+00  8.218E+00  5.547E-02  1.777E+00
   1    4    8     3     4    1.2712E+00  2.2567E-01   1.0456E+00  0.000E+00  0.000E+00  0.000E+00  1.06682E+03  1.364E+00  7.455E+00  6.709E-02  1.682E+00
   1    5    8     3     5    1.0456E+00  1.5790E-01   8.8768E-01  0.000E+00  0.000E+00  0.000E+00  1.06362E+03  1.164E+00  6.655E+00  4.991E-02  1.582E+00
   1    6    8     3     6    8.8768E-01  5.5980E-02   8.3170E-01  0.000E+00  0.000E+00  0.000E+00  1.06158E+03  1.036E+00  6.145E+00  1.844E-02  1.518E+00
   1    5   10     4     1    1.0000E+01  9.0919E-02   9.9091E+00  0.000E+00  0.000E+00  0.000E+00  1.07836E+03  6.368E-01  1.000E+01  2.500E-02  1.212E+00
   1    5    9     4     2    9.9091E+00  1.8158E-01   9.7275E+00  0.000E+00  0.000E+00  0.000E+00  1.07154E+03  6.315E-01  1.000E+01  5.000E-02  1.211E+00
   1    6    8     4     3    9.7275E+00  1.2689E-01   9.6006E+00  0.000E+00  0.000E+00  0.000E+00  1.06381E+03  6.256E-01  1.000E+01  3.500E-02  1.209E+00
   1    6    8     5     1    1.0432E+01  2.2686E-01   1.0205E+01  0.000E+00  0.000E+00  0.000E+00  1.05868E+03  6.790E-01  1.542E+01  6.166E-02  1.226E+00
   1    7    7     5     2    1.0205E+01  2.7894E-01   9.9265E+00  0.000E+00  0.000E+00  0.000E+00  1.05417E+03  6.732E-01  1.519E+01  7.594E-02  1.224E+00
   1    8    7     5     3    9.9265E+00  1.9221E-01   9.7343E+00  0.000E+00  0.000E+00  0.000E+00  1.04992E+03  6.676E-01  1.497E+01  5.241E-02  1.223E+00
   1    8    6     5     4    9.7343E+00  1.3577E-01   9.5985E+00  0.000E+00  0.000E+00  0.000E+00  1.04691E+03  6.637E-01  1.482E+01  3.706E-02  1.221E+00
   1    9    6     6     1    2.1889E+01  2.4742E-01   2.1641E+01  0.000E+00  0.000E+00  0.000E+00  1.04385E+03  1.124E+00  1.200E+01  6.000E-02  1.375E+00
   1   10    7     6     2    2.1641E+01  2.4696E-01   2.1395E+01  0.000E+00  0.000E+00  0.000E+00  1.03930E+03  1.116E+00  1.200E+01  6.000E-02  1.372E+00
   1   11    7     6     3    2.1395E+01  2.4650E-01   2.1148E+01  0.000E+00  0.000E+00  0.000E+00  1.03474E+03  1.108E+00  1.200E+01  6.000E-02  1.369E+00
   1   12    7     6     4    2.1148E+01  2.4603E-01   2.0902E+01  0.000E+00  0.000E+00  0.000E+00  1.03019E+03  1.101E+00  1.200E+01  6.000E-02  1.367E+00
   1   13    7     6     5    2.0902E+01 -9.2101E-03   2.0911E+01  0.000E+00  0.000E+00  0.000E+00  1.02701E+03  1.097E+00  1.200E+01  2.400E-01 -1.279E-02
   1   14    9     7     1    1.5000E+02  1.3391E+00   1.4866E+02  0.000E+00  0.000E+00  0.000E+00  1.03987E+03  2.288E+00  5.529E+01  5.593E-01  7.981E-01
   1   13    8     7     2    1.4866E+02  1.8412E+00   1.4682E+02  0.000E+00  0.000E+00  0.000E+00  1.03478E+03  2.279E+00  5.526E+01  6.148E-01  9.983E-01
   1   13    7     7     3    1.4682E+02  1.4773E+00   1.4534E+02  0.000E+00  0.000E+00  0.000E+00  1.02969E+03  2.270E+00  5.522E+01  5.584E-01  8.818E-01
   1   13    6     8     1    1.6625E+02  9.1086E-01   1.6534E+02  0.000E+00  0.000E+00  0.000E+00  1.02480E+03  2.925E+00  4.241E+01  4.321E-01  7.026E-01
   1   13    5     8     2    1.6534E+02  1.7059E-01   1.6517E+02  0.000E+00  0.000E+00  0.000E+00  1.01855E+03  2.921E+00  4.236E+01  4.316E-01  1.317E-01
   1   13    4     8     3    1.6517E+02 -2.4433E+00   1.6762E+02  0.000E+00  0.000E+00  0.000E+00  1.01230E+03  2.929E+00  4.246E+01  4.327E+00 -1.882E-01
   1   13    3     8     4    1.6762E+02 -3.6510E+00   1.7127E+02  0.000E+00  0.000E+00  0.000E+00  1.00607E+03  2.949E+00  4.275E+01  4.357E+00 -2.793E-01
   1   13    2     8     5    1.7127E+02 -2.5735E+00   1.7384E+02  0.000E+00  0.000E+00  0.000E+00  9.99844E+02  2.969E+00  4.305E+01  4.387E+00 -1.956E-01
   1   13    1     8     6    1.7384E+02 -1.9750E+00   1.7581E+02  0.000E+00  0.000E+00  0.000E+00  9.94858E+02  2.983E+00  4.326E+01  2.645E+00 -2.489E-01
   1    8    6     9     1    0.0000E+00  0.0000E+00   0.0000E+00  0.000E+00  0.000E+00  0.000E+00  1.07875E+03  0.000E+00  4.000E+00  0.000E+00  1.000E+00
   1    8    5     9     2    0.0000E+00  0.0000E+00   0.0000E+00  0.000E+00  0.000E+00  0.000E+00  1.07825E+03  0.000E+00  4.000E+00  0.000E+00  1.000E+00





UNSATURATED ZONE PACKAGE VOLUMETRIC BUDGET FOR  TIME STEP    30 STRESS PERIOD   26
  ------------------------------------------------------------------------------



     CUMULATIVE VOLUMES      L**3       RATES FOR THIS TIME STEP      L**3/T
     ------------------                 ------------------------

           IN:                                      IN:
           ---                                      ---
        INFILTRATION =  1032042826.9971          INFILTRATION =           0.8475

          OUT:                                     OUT:
          ----                                     ----
              UZF ET =   862772205.3735                UZF ET =           0.7500
        UZF RECHARGE =       73224.0000          UZF RECHARGE =       0.0000E+00

            IN - OUT =   169197397.6236              IN - OUT =       9.7500E-02

          STORAGE:                                 STORAGE:
          --------                                 --------
      STORAGE CHANGE =   169317600.3196        STORAGE CHANGE =       9.7500E-02

 PERCENT DISCREPANCY IS DIFFERENCE BETWEEN IN-OUT MINUS CHANGE IN STORAGE
 DIVIDED BY THE AVERAGE OF IN AND OUT TIMES 100

 PERCENT DISCREPANCY =          -0.00     PERCENT DISCREPANCY =           0.00






1
  VOLUMETRIC BUDGET FOR AGRICULTURAL FIELDS AT  END OF TIME STEP   30, STRESS PERIOD  26
  ------------------------------------------------------------------------------

     CUMULATIVE VOLUMES      L**3       RATES FOR THIS TIME STEP      L**3/T
     ------------------                 ------------------------

           IN:                                      IN:
           ---                                      ---
           AG WELLS      =   363470336.0000             AG WELLS      =           0.0000
      DIVERSION SEGMENTS =   612812416.0000        DIVERSION SEGMENTS =           0.0000
           GW IRRIGATION =           0.0000             GW IRRIGATION =           0.0000
           SW IRRIGATION =           0.0000             SW IRRIGATION =           0.0000
        SYSTEM LOSSES GW =           0.0000          SYSTEM LOSSES GW =           0.0000
        SYSTEM LOSSES SW =           0.0000          SYSTEM LOSSES SW =           0.0000

                TOTAL IN =   976282752.0000                  TOTAL IN =           0.0000

          OUT:                                     OUT:
          ----                                     ----
           AG WELLS      =           0.0000             AG WELLS      =           0.0000
      DIVERSION SEGMENTS =           0.0000        DIVERSION SEGMENTS =           0.0000
           GW IRRIGATION =   363470336.0000             GW IRRIGATION =           0.0000
           SW IRRIGATION =   612825280.0000             SW IRRIGATION =           0.0000
        SYSTEM LOSSES GW =           0.0000          SYSTEM LOSSES GW =           0.0000
        SYSTEM LOSSES SW =           0.0000          SYSTEM LOSSES SW =           0.0000

               TOTAL OUT =   976295616.0000                 TOTAL OUT =           0.0000

                IN - OUT =      -12864.0000                  IN - OUT =           0.0000

     PERCENT DISCREPANCY =          -0.00         PERCENT DISCREPANCY =           0.00



1
  VOLUMETRIC BUDGET FOR ENTIRE MODEL AT END OF TIME STEP   30, STRESS PERIOD  26
  ------------------------------------------------------------------------------

     CUMULATIVE VOLUMES      L**3       RATES FOR THIS TIME STEP      L**3/T
     ------------------                 ------------------------

           IN:                                      IN:
           ---                                      ---
             STORAGE     =   589513920.0000               STORAGE     =           4.7792
       CONSTANT HEAD     =           0.0000         CONSTANT HEAD     =           0.0000
     HEAD DEP BOUNDS     =    18815808.0000       HEAD DEP BOUNDS     =           0.2860
      STREAM LEAKAGE     =   780164672.0000        STREAM LEAKAGE     =          11.3374
        UZF RECHARGE     =       73223.9531          UZF RECHARGE     =           0.0000
               GW ET     =           0.0000                 GW ET     =           0.0000
     SURFACE LEAKAGE     =           0.0000       SURFACE LEAKAGE     =           0.0000
           AG WELLS      =           0.0000             AG WELLS      =           0.0000

                TOTAL IN =  1388567552.0000                  TOTAL IN =          16.4025

          OUT:                                     OUT:
          ----                                     ----
             STORAGE     =   291194560.0000               STORAGE     =           5.4617
       CONSTANT HEAD     =           0.0000         CONSTANT HEAD     =           0.0000
     HEAD DEP BOUNDS     =    19125312.0000       HEAD DEP BOUNDS     =           0.2890
      STREAM LEAKAGE     =   712561728.0000        STREAM LEAKAGE     =          10.6520
        UZF RECHARGE     =           0.0000          UZF RECHARGE     =           0.0000
               GW ET     =     2220319.5000                 GW ET     =           0.0000
     SURFACE LEAKAGE     =           0.0000       SURFACE LEAKAGE     =           0.0000
           AG WELLS      =   363470336.0000             AG WELLS      =           0.0000

               TOTAL OUT =  1388572160.0000                 TOTAL OUT =          16.4027

                IN - OUT =       -4608.0000                  IN - OUT =      -1.9073E-04

     PERCENT DISCREPANCY =          -0.00         PERCENT DISCREPANCY =          -0.00






         TIME SUMMARY AT END OF TIME STEP   30 IN STRESS PERIOD   26
                    SECONDS     MINUTES      HOURS       DAYS        YEARS
                    -----------------------------------------------------------
   TIME STEP LENGTH  87667.      1461.1      24.352      1.0147     2.77799E-03
 STRESS PERIOD TIME 2.63000E+06  43833.      730.56      30.440     8.33397E-02
         TOTAL TIME 6.58368E+07 1.09728E+06  18288.      762.00      2.0862    
1
1
                            STRESS PERIOD NO.   27, LENGTH =   2630000.    
                            -----------------------------------------------

                              NUMBER OF TIME STEPS =    30

                               MULTIPLIER FOR DELT =     1.000

                            INITIAL TIME STEP SIZE =   87666.66    

 REUSING NON-PARAMETER GHB CELLS FROM LAST STRESS PERIOD

      2 GHB CELLS

 REUSING STREAM SEGMENT DATA FROM LAST STRESS PERIOD



            AREAL INFILTRATION RATE
 READING ON UNIT   19 WITH FORMAT: (FREE)              

            1           2           3           4           5           6           7           8           9          10
 ........................................................................................................................
   1   1.0000E-10  2.0000E-10   0.000       0.000       0.000       0.000       0.000       0.000       0.000       0.000    
   2   2.0000E-10  1.0000E-10  2.0000E-10   0.000       0.000      8.0000E-10  8.0000E-10  5.0000E-10   0.000       0.000    
   3    0.000      5.0000E-10  1.0000E-10  1.0000E-10  8.0000E-10  8.0000E-10  5.0000E-10  5.0000E-10   0.000       0.000    
   4   8.0000E-10  5.0000E-10  1.0000E-10  1.0000E-10  1.0000E-10  1.0000E-10  1.0000E-10  1.0000E-10  2.0000E-10   0.000    
   5   8.0000E-10  5.0000E-10  1.0000E-10  1.0000E-10  1.0000E-10  1.0000E-10  1.0000E-10  1.0000E-10  1.0000E-10  1.0000E-10
   6   8.0000E-10  5.0000E-10  5.0000E-10  2.0000E-10  2.0000E-10  1.0000E-10  1.0000E-10  1.0000E-10  1.0000E-10  5.0000E-10
   7   8.0000E-10  5.0000E-10  5.0000E-10  2.0000E-10  2.0000E-10  1.0000E-10  1.0000E-10  2.0000E-10  2.0000E-10   0.000    
   8    0.000      5.0000E-10  5.0000E-10  2.0000E-10  2.0000E-10  1.0000E-10  1.0000E-10  2.0000E-10  5.0000E-10   0.000    
   9    0.000      5.0000E-10  5.0000E-10  2.0000E-10  2.0000E-10  1.0000E-10  1.0000E-10  2.0000E-10  5.0000E-10   0.000    
  10    0.000      5.0000E-10  5.0000E-10  2.0000E-10  2.0000E-10  1.0000E-10  1.0000E-10  2.0000E-10  5.0000E-10  8.0000E-10
  11    0.000      1.0000E-10  1.0000E-10  1.0000E-10  1.0000E-10  1.0000E-10  1.0000E-10  2.0000E-10  5.0000E-10   0.000    
  12   1.0000E-10  1.0000E-10  1.0000E-10  1.0000E-10  1.0000E-10  1.0000E-10  1.0000E-10  1.0000E-10  2.0000E-10   0.000    
  13   1.0000E-10  1.0000E-10  2.0000E-10  2.0000E-10  2.0000E-10  2.0000E-10  2.0000E-10  1.0000E-10  1.0000E-10   0.000    
  14    0.000      2.0000E-10  5.0000E-10  5.0000E-10  5.0000E-10  5.0000E-10  5.0000E-10  2.0000E-10  1.0000E-10   0.000    
  15    0.000       0.000      8.0000E-10  8.0000E-10  8.0000E-10  8.0000E-10   0.000       0.000       0.000       0.000    

                  ET RATE =  5.000000E-10

 USING ET EXTINCTION DEPTH FROM PREVIOUS STRESS PERIOD. CURRENT PERIOD IS:      27

 USING EXTINCTION WATER CONTENT FROM PREVIOUS STRESS PERIOD. CURRENT PERIOD IS:      27

 USING AIR ENTRY PRESSURE FROM PREVIOUS STRESS PERIOD. CURRENT PERIOD IS:      27

 USING ROOT PRESSURE HEAD FROM PREVIOUS STRESS PERIOD. CURRENT PERIOD IS:      27

 USING ROOT ACTIVITY FROM PREVIOUS STRESS PERIOD. CURRENT PERIOD IS:      27

 PROCESSING AG STRESS PERIOD DATA

 READING AG STRESS PERIOD DATA

 READING IRRIGATION SEGMENT

 READING IRRIGATION WELL

 READING SUPPLEMENTAL WELL

 END PROCESSING AG STRESS PERIOD DATA OPTIONS
 
 SOLVING FOR HEAD 
                                                   Max.-Head-Change                         Max.-Flux-Residual
  Residual-Control   Outer-Iter.   Inner-Iter.     Column Row Layer    Maximum-Head-Change  Column Row Layer    Maximum-Flux-Residual          L2-NORM 
          0                 1           2             4    7     1       0.1379452958E-01       4    7    1         0.7249090670E+00      0.1675644075E+01
          0                 2           2             4    7     1      -0.1341835630E-02       4    7    1        -0.7249118056E-01      0.1675642529E+00
          0                 3           1             4    7     1       0.9137399431E-04       4    7    1         0.5074382252E-02      0.1172943140E-01

    ------------------------------------------------
       NWT REQUIRED            3 OUTER ITERATIONS 
       AND A TOTAL OF          5 INNER ITERATIONS.
    ------------------------------------------------

 NO OUTPUT CONTROL FOR STRESS PERIOD   27   TIME STEP    1
 
 SOLVING FOR HEAD 
                                                   Max.-Head-Change                         Max.-Flux-Residual
  Residual-Control   Outer-Iter.   Inner-Iter.     Column Row Layer    Maximum-Head-Change  Column Row Layer    Maximum-Flux-Residual          L2-NORM 
          0                 1           2             4    7     1       0.1363993880E-01       4    7    1         0.7167437392E+00      0.1659169197E+01
          0                 2           2             4    7     1      -0.1326798066E-02       4    7    1        -0.7167464122E-01      0.1659552020E+00
          0                 3           1             4    7     1       0.9034999284E-04       4    7    1         0.5017224526E-02      0.1162008966E-01

    ------------------------------------------------
       NWT REQUIRED            3 OUTER ITERATIONS 
       AND A TOTAL OF          5 INNER ITERATIONS.
    ------------------------------------------------

 NO OUTPUT CONTROL FOR STRESS PERIOD   27   TIME STEP    2
 
 SOLVING FOR HEAD 
                                                   Max.-Head-Change                         Max.-Flux-Residual
  Residual-Control   Outer-Iter.   Inner-Iter.     Column Row Layer    Maximum-Head-Change  Column Row Layer    Maximum-Flux-Residual          L2-NORM 
          0                 1           2             4    7     1       0.1348813320E-01       4    7    1         0.7087210422E+00      0.1732976615E+01
          0                 2           2             4    7     1      -0.1312031425E-02       4    7    1        -0.7087236506E-01      0.1728107176E+00
          0                 3           1             4    7     1       0.8934443994E-04       4    7    1         0.4961065223E-02      0.1205259283E-01

    ------------------------------------------------
       NWT REQUIRED            3 OUTER ITERATIONS 
       AND A TOTAL OF          5 INNER ITERATIONS.
    ------------------------------------------------

 NO OUTPUT CONTROL FOR STRESS PERIOD   27   TIME STEP    3
 
 SOLVING FOR HEAD 
                                                   Max.-Head-Change                         Max.-Flux-Residual
  Residual-Control   Outer-Iter.   Inner-Iter.     Column Row Layer    Maximum-Head-Change  Column Row Layer    Maximum-Flux-Residual          L2-NORM 
          0                 1           2             4    7     1       0.1333863197E-01       4    7    1         0.7008206542E+00      0.1705248655E+01
          0                 2           2             4    7     1      -0.1297488938E-02       4    7    1        -0.7008231996E-01      0.1701072777E+00
          0                 3           1             4    7     1       0.8835415164E-04       4    7    1         0.4905762120E-02      0.1186969036E-01

    ------------------------------------------------
       NWT REQUIRED            3 OUTER ITERATIONS 
       AND A TOTAL OF          5 INNER ITERATIONS.
    ------------------------------------------------

 NO OUTPUT CONTROL FOR STRESS PERIOD   27   TIME STEP    4
 
 SOLVING FOR HEAD 
                                                   Max.-Head-Change                         Max.-Flux-Residual
  Residual-Control   Outer-Iter.   Inner-Iter.     Column Row Layer    Maximum-Head-Change  Column Row Layer    Maximum-Flux-Residual          L2-NORM 
          0                 1           2             4    7     1       0.1319179443E-01       4    7    1         0.6930618434E+00      0.1679652767E+01
          0                 2           2             4    7     1      -0.1283205560E-02       4    7    1        -0.6930643275E-01      0.1676061967E+00
          0                 3           1             4    7     1       0.8738150733E-04       4    7    1         0.4851450054E-02      0.1169943053E-01

    ------------------------------------------------
       NWT REQUIRED            3 OUTER ITERATIONS 
       AND A TOTAL OF          5 INNER ITERATIONS.
    ------------------------------------------------

 NO OUTPUT CONTROL FOR STRESS PERIOD   27   TIME STEP    5
 
 SOLVING FOR HEAD 
                                                   Max.-Head-Change                         Max.-Flux-Residual
  Residual-Control   Outer-Iter.   Inner-Iter.     Column Row Layer    Maximum-Head-Change  Column Row Layer    Maximum-Flux-Residual          L2-NORM 
          0                 1           2             4    7     1       0.1304742077E-01       4    7    1         0.6854337744E+00      0.1655901792E+01
          0                 2           2             4    7     1      -0.1269205991E-02       4    7    1        -0.6854361993E-01      0.1653395564E+00
          0                 3           1             4    7     1       0.8642818952E-04       4    7    1         0.4798053176E-02      0.1154561382E-01

    ------------------------------------------------
       NWT REQUIRED            3 OUTER ITERATIONS 
       AND A TOTAL OF          5 INNER ITERATIONS.
    ------------------------------------------------

 NO OUTPUT CONTROL FOR STRESS PERIOD   27   TIME STEP    6
 
 SOLVING FOR HEAD 
                                                   Max.-Head-Change                         Max.-Flux-Residual
  Residual-Control   Outer-Iter.   Inner-Iter.     Column Row Layer    Maximum-Head-Change  Column Row Layer    Maximum-Flux-Residual          L2-NORM 
          0                 1           2             4    7     1       0.1290517153E-01       4    7    1         0.6779237399E+00      0.1633678667E+01
          0                 2           2             4    7     1      -0.1255324803E-02       4    7    1        -0.6779261087E-01      0.1631030357E+00
          0                 3           1             4    7     1       0.8548293292E-04       4    7    1         0.4745482581E-02      0.1139323409E-01

    ------------------------------------------------
       NWT REQUIRED            3 OUTER ITERATIONS 
       AND A TOTAL OF          5 INNER ITERATIONS.
    ------------------------------------------------

 NO OUTPUT CONTROL FOR STRESS PERIOD   27   TIME STEP    7
 
 SOLVING FOR HEAD 
                                                   Max.-Head-Change                         Max.-Flux-Residual
  Residual-Control   Outer-Iter.   Inner-Iter.     Column Row Layer    Maximum-Head-Change  Column Row Layer    Maximum-Flux-Residual          L2-NORM 
          0                 1           2             4    7     1       0.1276527334E-01       4    7    1         0.6705359104E+00      0.1612834625E+01
          0                 2           2             4    7     1      -0.1241716441E-02       4    7    1        -0.6705382237E-01      0.1610563083E+00
          0                 3           1             4    7     1       0.8455625458E-04       4    7    1         0.4693767405E-02      0.1125318948E-01

    ------------------------------------------------
       NWT REQUIRED            3 OUTER ITERATIONS 
       AND A TOTAL OF          5 INNER ITERATIONS.
    ------------------------------------------------

 NO OUTPUT CONTROL FOR STRESS PERIOD   27   TIME STEP    8
 
 SOLVING FOR HEAD 
                                                   Max.-Head-Change                         Max.-Flux-Residual
  Residual-Control   Outer-Iter.   Inner-Iter.     Column Row Layer    Maximum-Head-Change  Column Row Layer    Maximum-Flux-Residual          L2-NORM 
          0                 1           2             4    7     1       0.1262776619E-01       4    7    1         0.6632750013E+00      0.1593191850E+01
          0                 2           2             4    7     1      -0.1228340666E-02       4    7    1        -0.6632772608E-01      0.1591241719E+00
          0                 3           1             4    7     1       0.8364541478E-04       4    7    1         0.4642940703E-02      0.1112075283E-01

    ------------------------------------------------
       NWT REQUIRED            3 OUTER ITERATIONS 
       AND A TOTAL OF          5 INNER ITERATIONS.
    ------------------------------------------------

 NO OUTPUT CONTROL FOR STRESS PERIOD   27   TIME STEP    9
 
 SOLVING FOR HEAD 
                                                   Max.-Head-Change                         Max.-Flux-Residual
  Residual-Control   Outer-Iter.   Inner-Iter.     Column Row Layer    Maximum-Head-Change  Column Row Layer    Maximum-Flux-Residual          L2-NORM 
          0                 1           2             4    7     1       0.1249232300E-01       4    7    1         0.6561233292E+00      0.1574596562E+01
          0                 2           2             4    7     1      -0.1215165658E-02       4    7    1        -0.6561255362E-01      0.1572921050E+00
          0                 3           1             4    7     1       0.8274824616E-04       4    7    1         0.4592878649E-02      0.1099517928E-01

    ------------------------------------------------
       NWT REQUIRED            3 OUTER ITERATIONS 
       AND A TOTAL OF          5 INNER ITERATIONS.
    ------------------------------------------------

 NO OUTPUT CONTROL FOR STRESS PERIOD   27   TIME STEP   10
 
 SOLVING FOR HEAD 
                                                   Max.-Head-Change                         Max.-Flux-Residual
  Residual-Control   Outer-Iter.   Inner-Iter.     Column Row Layer    Maximum-Head-Change  Column Row Layer    Maximum-Flux-Residual          L2-NORM 
          0                 1           2             4    7     1       0.1235903871E-01       4    7    1         0.6490860369E+00      0.1556923730E+01
          0                 2           2             4    7     1      -0.1202200656E-02       4    7    1        -0.6490881931E-01      0.1555486233E+00
          0                 3           1             4    7     1       0.8186537829E-04       4    7    1         0.4543617280E-02      0.1087509002E-01

    ------------------------------------------------
       NWT REQUIRED            3 OUTER ITERATIONS 
       AND A TOTAL OF          5 INNER ITERATIONS.
    ------------------------------------------------

 NO OUTPUT CONTROL FOR STRESS PERIOD   27   TIME STEP   11
 
 SOLVING FOR HEAD 
                                                   Max.-Head-Change                         Max.-Flux-Residual
  Residual-Control   Outer-Iter.   Inner-Iter.     Column Row Layer    Maximum-Head-Change  Column Row Layer    Maximum-Flux-Residual          L2-NORM 
          0                 1           2             4    7     1       0.1222786431E-01       4    7    1         0.6421606806E+00      0.1540057557E+01
          0                 2           2             4    7     1      -0.1189440889E-02       4    7    1        -0.6421627870E-01      0.1538823711E+00
          0                 3           1             4    7     1       0.8099648634E-04       4    7    1         0.4495139461E-02      0.1076052752E-01

    ------------------------------------------------
       NWT REQUIRED            3 OUTER ITERATIONS 
       AND A TOTAL OF          5 INNER ITERATIONS.
    ------------------------------------------------

 NO OUTPUT CONTROL FOR STRESS PERIOD   27   TIME STEP   12
 
 SOLVING FOR HEAD 
                                                   Max.-Head-Change                         Max.-Flux-Residual
  Residual-Control   Outer-Iter.   Inner-Iter.     Column Row Layer    Maximum-Head-Change  Column Row Layer    Maximum-Flux-Residual          L2-NORM 
          0                 1           2             4    7     1       0.1209875659E-01       4    7    1         0.6353447184E+00      0.1523913962E+01
          0                 2           2             4    7     1      -0.1176882156E-02       4    7    1        -0.6353467763E-01      0.1522857440E+00
          0                 3           1             4    7     1       0.8014128368E-04       4    7    1         0.4447427394E-02      0.1065044596E-01

    ------------------------------------------------
       NWT REQUIRED            3 OUTER ITERATIONS 
       AND A TOTAL OF          5 INNER ITERATIONS.
    ------------------------------------------------

 NO OUTPUT CONTROL FOR STRESS PERIOD   27   TIME STEP   13
 
 SOLVING FOR HEAD 
                                                   Max.-Head-Change                         Max.-Flux-Residual
  Residual-Control   Outer-Iter.   Inner-Iter.     Column Row Layer    Maximum-Head-Change  Column Row Layer    Maximum-Flux-Residual          L2-NORM 
          0                 1           2             4    7     1       0.1197167290E-01       4    7    1         0.6286359101E+00      0.1508400554E+01
          0                 2           2             4    7     1      -0.1164520309E-02       4    7    1        -0.6286379209E-01      0.1507492805E+00
          0                 3           1             4    7     1       0.7929948857E-04       4    7    1         0.4400465444E-02      0.1054388710E-01

    ------------------------------------------------
       NWT REQUIRED            3 OUTER ITERATIONS 
       AND A TOTAL OF          5 INNER ITERATIONS.
    ------------------------------------------------

 NO OUTPUT CONTROL FOR STRESS PERIOD   27   TIME STEP   14
 
 SOLVING FOR HEAD 
                                                   Max.-Head-Change                         Max.-Flux-Residual
  Residual-Control   Outer-Iter.   Inner-Iter.     Column Row Layer    Maximum-Head-Change  Column Row Layer    Maximum-Flux-Residual          L2-NORM 
          0                 1           2             4    7     1       0.1184670303E-01       4    7    1         0.6220394136E+00      0.1493461969E+01
          0                 2           2             4    7     1      -0.1152364080E-02       4    7    1        -0.6220413786E-01      0.1492679360E+00
          0                 3           1             4    7     1       0.7847169505E-04       4    7    1         0.4354289676E-02      0.1044146471E-01

    ------------------------------------------------
       NWT REQUIRED            3 OUTER ITERATIONS 
       AND A TOTAL OF          5 INNER ITERATIONS.
    ------------------------------------------------

 NO OUTPUT CONTROL FOR STRESS PERIOD   27   TIME STEP   15
 
 SOLVING FOR HEAD 
                                                   Max.-Head-Change                         Max.-Flux-Residual
  Residual-Control   Outer-Iter.   Inner-Iter.     Column Row Layer    Maximum-Head-Change  Column Row Layer    Maximum-Flux-Residual          L2-NORM 
          0                 1           2             4    7     1       0.1172352870E-01       4    7    1         0.6155377774E+00      0.1479008169E+01
          0                 2           2             4    7     1      -0.1140382510E-02       4    7    1        -0.6155396976E-01      0.1478338321E+00
          0                 3           1             4    7     1       0.7765579530E-04       4    7    1         0.4308777920E-02      0.1034223578E-01

    ------------------------------------------------
       NWT REQUIRED            3 OUTER ITERATIONS 
       AND A TOTAL OF          5 INNER ITERATIONS.
    ------------------------------------------------

 NO OUTPUT CONTROL FOR STRESS PERIOD   27   TIME STEP   16
 
 SOLVING FOR HEAD 
                                                   Max.-Head-Change                         Max.-Flux-Residual
  Residual-Control   Outer-Iter.   Inner-Iter.     Column Row Layer    Maximum-Head-Change  Column Row Layer    Maximum-Flux-Residual          L2-NORM 
          0                 1           2             4    7     1       0.1160238204E-01       4    7    1         0.6091439752E+00      0.1465030281E+01
          0                 2           2             4    7     1      -0.1128598179E-02       4    7    1        -0.6091458519E-01      0.1464455280E+00
          0                 3           1             4    7     1       0.7685332665E-04       4    7    1         0.4264021027E-02      0.1024572613E-01

    ------------------------------------------------
       NWT REQUIRED            3 OUTER ITERATIONS 
       AND A TOTAL OF          5 INNER ITERATIONS.
    ------------------------------------------------

 NO OUTPUT CONTROL FOR STRESS PERIOD   27   TIME STEP   17
 
 SOLVING FOR HEAD 
                                                   Max.-Head-Change                         Max.-Flux-Residual
  Residual-Control   Outer-Iter.   Inner-Iter.     Column Row Layer    Maximum-Head-Change  Column Row Layer    Maximum-Flux-Residual          L2-NORM 
          0                 1           2             4    7     1       0.1148308437E-01       4    7    1         0.6028479348E+00      0.1451453445E+01
          0                 2           2             4    7     1      -0.1116993705E-02       4    7    1        -0.6028497690E-01      0.1450960416E+00
          0                 3           1             4    7     1       0.7606310583E-04       4    7    1         0.4219948474E-02      0.1015207839E-01

    ------------------------------------------------
       NWT REQUIRED            3 OUTER ITERATIONS 
       AND A TOTAL OF          5 INNER ITERATIONS.
    ------------------------------------------------

 NO OUTPUT CONTROL FOR STRESS PERIOD   27   TIME STEP   18
 
 SOLVING FOR HEAD 
                                                   Max.-Head-Change                         Max.-Flux-Residual
  Residual-Control   Outer-Iter.   Inner-Iter.     Column Row Layer    Maximum-Head-Change  Column Row Layer    Maximum-Flux-Residual          L2-NORM 
          0                 1           2             4    7     1       0.1136559505E-01       4    7    1         0.5966477618E+00      0.1438258502E+01
          0                 2           2             4    7     1      -0.1105565137E-02       4    7    1        -0.5966495548E-01      0.1437834210E+00
          0                 3           1             4    7     1       0.7528486353E-04       4    7    1         0.4176547000E-02      0.1006128623E-01

    ------------------------------------------------
       NWT REQUIRED            3 OUTER ITERATIONS 
       AND A TOTAL OF          5 INNER ITERATIONS.
    ------------------------------------------------

 NO OUTPUT CONTROL FOR STRESS PERIOD   27   TIME STEP   19
 
 SOLVING FOR HEAD 
                                                   Max.-Head-Change                         Max.-Flux-Residual
  Residual-Control   Outer-Iter.   Inner-Iter.     Column Row Layer    Maximum-Head-Change  Column Row Layer    Maximum-Flux-Residual          L2-NORM 
          0                 1           2             4    7     1       0.1124987609E-01       4    7    1         0.5905413489E+00      0.1425403572E+01
          0                 2           2             4    7     1      -0.1094308778E-02       4    7    1        -0.5905431018E-01      0.1425038746E+00
          0                 3           1             4    7     1       0.7451834732E-04       4    7    1         0.4133801833E-02      0.9971836914E-02

    ------------------------------------------------
       NWT REQUIRED            3 OUTER ITERATIONS 
       AND A TOTAL OF          5 INNER ITERATIONS.
    ------------------------------------------------

 NO OUTPUT CONTROL FOR STRESS PERIOD   27   TIME STEP   20
 
 SOLVING FOR HEAD 
                                                   Max.-Head-Change                         Max.-Flux-Residual
  Residual-Control   Outer-Iter.   Inner-Iter.     Column Row Layer    Maximum-Head-Change  Column Row Layer    Maximum-Flux-Residual          L2-NORM 
          0                 1           2             4    7     1       0.1113602746E-01       4    7    1         0.5845340961E+00      0.1412864044E+01
          0                 2           2             4    7     1      -0.1083234353E-02       4    7    1        -0.5845358098E-01      0.1412551479E+00
          0                 3           1             4    7     1       0.7376422083E-04       4    7    1         0.4091750826E-02      0.9884969218E-02

    ------------------------------------------------
       NWT REQUIRED            3 OUTER ITERATIONS 
       AND A TOTAL OF          5 INNER ITERATIONS.
    ------------------------------------------------

 NO OUTPUT CONTROL FOR STRESS PERIOD   27   TIME STEP   21
 
 SOLVING FOR HEAD 
                                                   Max.-Head-Change                         Max.-Flux-Residual
  Residual-Control   Outer-Iter.   Inner-Iter.     Column Row Layer    Maximum-Head-Change  Column Row Layer    Maximum-Flux-Residual          L2-NORM 
          0                 1           2             4    7     1       0.1102386685E-01       4    7    1         0.5786164472E+00      0.1400611695E+01
          0                 2           2             4    7     1      -0.1072324128E-02       4    7    1        -0.5786181228E-01      0.1400342426E+00
          0                 3           1             4    7     1       0.7302127515E-04       4    7    1         0.4050327022E-02      0.9799800312E-02

    ------------------------------------------------
       NWT REQUIRED            3 OUTER ITERATIONS 
       AND A TOTAL OF          5 INNER ITERATIONS.
    ------------------------------------------------

 NO OUTPUT CONTROL FOR STRESS PERIOD   27   TIME STEP   22
 
 SOLVING FOR HEAD 
                                                   Max.-Head-Change                         Max.-Flux-Residual
  Residual-Control   Outer-Iter.   Inner-Iter.     Column Row Layer    Maximum-Head-Change  Column Row Layer    Maximum-Flux-Residual          L2-NORM 
          0                 1           2             4    7     1       0.1091336644E-01       4    7    1         0.5727863192E+00      0.1388637612E+01
          0                 2           2             4    7     1      -0.1061575395E-02       4    7    1        -0.5727879575E-01      0.1388406302E+00
          0                 3           1             4    7     1       0.7228932685E-04       4    7    1         0.4009515878E-02      0.9716705872E-02

    ------------------------------------------------
       NWT REQUIRED            3 OUTER ITERATIONS 
       AND A TOTAL OF          5 INNER ITERATIONS.
    ------------------------------------------------

 NO OUTPUT CONTROL FOR STRESS PERIOD   27   TIME STEP   23
 
 SOLVING FOR HEAD 
                                                   Max.-Head-Change                         Max.-Flux-Residual
  Residual-Control   Outer-Iter.   Inner-Iter.     Column Row Layer    Maximum-Head-Change  Column Row Layer    Maximum-Flux-Residual          L2-NORM 
          0                 1           2             4    7     1       0.1080462120E-01       4    7    1         0.5670496404E+00      0.1376905079E+01
          0                 2           2             4    7     1      -0.1050997395E-02       4    7    1        -0.5670512426E-01      0.1376707907E+00
          0                 3           1             4    7     1       0.7156900488E-04       4    7    1         0.3969358898E-02      0.9635125501E-02

    ------------------------------------------------
       NWT REQUIRED            3 OUTER ITERATIONS 
       AND A TOTAL OF          5 INNER ITERATIONS.
    ------------------------------------------------

 NO OUTPUT CONTROL FOR STRESS PERIOD   27   TIME STEP   24
 
 SOLVING FOR HEAD 
                                                   Max.-Head-Change                         Max.-Flux-Residual
  Residual-Control   Outer-Iter.   Inner-Iter.     Column Row Layer    Maximum-Head-Change  Column Row Layer    Maximum-Flux-Residual          L2-NORM 
          0                 1           2             4    7     1       0.1069745570E-01       4    7    1         0.5613965937E+00      0.1365405978E+01
          0                 2           2             4    7     1      -0.1042313467E-02       4    7    1        -0.5625270355E-01      0.1365572712E+00
          0                 3           1             4    7     1       0.7097765967E-04       4    7    1         0.3937689302E-02      0.9557439624E-02

    ------------------------------------------------
       NWT REQUIRED            3 OUTER ITERATIONS 
       AND A TOTAL OF          5 INNER ITERATIONS.
    ------------------------------------------------

 NO OUTPUT CONTROL FOR STRESS PERIOD   27   TIME STEP   25
 
 SOLVING FOR HEAD 
                                                   Max.-Head-Change                         Max.-Flux-Residual
  Residual-Control   Outer-Iter.   Inner-Iter.     Column Row Layer    Maximum-Head-Change  Column Row Layer    Maximum-Flux-Residual          L2-NORM 
          0                 1           2             4    7     1       0.1058762013E-01       4    7    1         0.5557326278E+00      0.1354103959E+01
          0                 2           2             4    7     1      -0.1029889203E-02       4    7    1        -0.5557342982E-01      0.1353959052E+00
          0                 3           1             4    7     1       0.7013161426E-04       4    7    1         0.3890140194E-02      0.9476423119E-02

    ------------------------------------------------
       NWT REQUIRED            3 OUTER ITERATIONS 
       AND A TOTAL OF          5 INNER ITERATIONS.
    ------------------------------------------------

 NO OUTPUT CONTROL FOR STRESS PERIOD   27   TIME STEP   26
 
 SOLVING FOR HEAD 
                                                   Max.-Head-Change                         Max.-Flux-Residual
  Residual-Control   Outer-Iter.   Inner-Iter.     Column Row Layer    Maximum-Head-Change  Column Row Layer    Maximum-Flux-Residual          L2-NORM 
          0                 1           2             4    7     1       0.1048142814E-01       4    7    1         0.5501231963E+00      0.1343005229E+01
          0                 2           2             4    7     1      -0.1019559557E-02       4    7    1        -0.5501248254E-01      0.1342882587E+00
          0                 3           1             4    7     1       0.6942820414E-04       4    7    1         0.3850873892E-02      0.9399173830E-02

    ------------------------------------------------
       NWT REQUIRED            3 OUTER ITERATIONS 
       AND A TOTAL OF          5 INNER ITERATIONS.
    ------------------------------------------------

 NO OUTPUT CONTROL FOR STRESS PERIOD   27   TIME STEP   27
 
 SOLVING FOR HEAD 
                                                   Max.-Head-Change                         Max.-Flux-Residual
  Residual-Control   Outer-Iter.   Inner-Iter.     Column Row Layer    Maximum-Head-Change  Column Row Layer    Maximum-Flux-Residual          L2-NORM 
          0                 1           2             4    7     1       0.1037689547E-01       4    7    1         0.5446025332E+00      0.1332097243E+01
          0                 2           2             4    7     1      -0.1009391319E-02       4    7    1        -0.5446041221E-01      0.1331990609E+00
          0                 3           1             4    7     1       0.6873578571E-04       4    7    1         0.3812228995E-02      0.9322936362E-02

    ------------------------------------------------
       NWT REQUIRED            3 OUTER ITERATIONS 
       AND A TOTAL OF          5 INNER ITERATIONS.
    ------------------------------------------------

 NO OUTPUT CONTROL FOR STRESS PERIOD   27   TIME STEP   28
 
 SOLVING FOR HEAD 
                                                   Max.-Head-Change                         Max.-Flux-Residual
  Residual-Control   Outer-Iter.   Inner-Iter.     Column Row Layer    Maximum-Head-Change  Column Row Layer    Maximum-Flux-Residual          L2-NORM 
          0                 1           2             4    7     1       0.1027398506E-01       4    7    1         0.5391679028E+00      0.1321377429E+01
          0                 2           2             4    7     1      -0.9993808851E-03       4    7    1        -0.5391694528E-01      0.1321285993E+00
          0                 3           1             4    7     1       0.6805411214E-04       4    7    1         0.3774186314E-02      0.9248087505E-02

    ------------------------------------------------
       NWT REQUIRED            3 OUTER ITERATIONS 
       AND A TOTAL OF          5 INNER ITERATIONS.
    ------------------------------------------------

 NO OUTPUT CONTROL FOR STRESS PERIOD   27   TIME STEP   29
 
 SOLVING FOR HEAD 
                                                   Max.-Head-Change                         Max.-Flux-Residual
  Residual-Control   Outer-Iter.   Inner-Iter.     Column Row Layer    Maximum-Head-Change  Column Row Layer    Maximum-Flux-Residual          L2-NORM 
          0                 1           2             4    7     1       0.1017279265E-01       4    7    1         0.5338247554E+00      0.1310847331E+01
          0                 2           2             4    7     1      -0.9895375674E-03       4    7    1        -0.5338262677E-01      0.1310769373E+00
          0                 3           1             4    7     1       0.6738382030E-04       4    7    1         0.3736784067E-02      0.9174645638E-02

    ------------------------------------------------
       NWT REQUIRED            3 OUTER ITERATIONS 
       AND A TOTAL OF          5 INNER ITERATIONS.
    ------------------------------------------------

 NO OUTPUT CONTROL FOR STRESS PERIOD   27   TIME STEP   30



 STREAM LISTING     PERIOD     27   STEP       30

 LAYER ROW COL. STREAM  RCH.  FLOW INTO     FLOW TO   FLOW OUT OF   OVRLND.     DIRECT     STREAM       STREAM     STREAM     STREAM   STREAMBED  STREAMBED
                SEG.NO.  NO.  STRM. RCH.    AQUIFER    STRM. RCH.    RUNOFF     PRECIP       ET          HEAD       DEPTH      WIDTH   CONDCTNC.   GRADIENT

   1    1    1     1     1    3.1499E+01  2.7310E-01   3.1226E+01  0.000E+00  0.000E+00  0.000E+00  1.09431E+03  1.262E+00  1.424E+01  6.407E-02  1.421E+00
   1    2    2     1     2    3.1226E+01  4.2272E-01   3.0803E+01  0.000E+00  0.000E+00  0.000E+00  1.08932E+03  1.259E+00  1.418E+01  9.925E-02  1.420E+00
   1    3    3     1     3    3.0803E+01  3.6028E-01   3.0443E+01  0.000E+00  0.000E+00  0.000E+00  1.08367E+03  1.256E+00  1.411E+01  8.466E-02  1.419E+00
   1    3    4     1     4    3.0443E+01  3.3158E-01   3.0111E+01  0.000E+00  0.000E+00  0.000E+00  1.07866E+03  1.253E+00  1.405E+01  7.797E-02  1.418E+00
   1    4    5     2     1    2.8111E+01  3.3470E-01   2.7777E+01  0.000E+00  0.000E+00  0.000E+00  1.07322E+03  1.291E+00  1.200E+01  7.800E-02  1.430E+00
   1    5    6     2     2    2.7777E+01  2.5697E-01   2.7520E+01  0.000E+00  0.000E+00  0.000E+00  1.06779E+03  1.283E+00  1.200E+01  6.000E-02  1.428E+00
   1    6    6     2     3    2.7520E+01  2.5654E-01   2.7263E+01  0.000E+00  0.000E+00  0.000E+00  1.06307E+03  1.276E+00  1.200E+01  6.000E-02  1.425E+00
   1    7    6     2     4    2.7263E+01  2.5611E-01   2.7007E+01  0.000E+00  0.000E+00  0.000E+00  1.05834E+03  1.268E+00  1.200E+01  6.000E-02  1.423E+00
   1    8    6     2     5    2.7007E+01  2.5567E-01   2.6751E+01  0.000E+00  0.000E+00  0.000E+00  1.05362E+03  1.261E+00  1.200E+01  6.000E-02  1.420E+00
   1    3    5     3     1    2.0000E+00  2.8252E-01   1.7175E+00  0.000E+00  0.000E+00  0.000E+00  1.07555E+03  1.909E+00  9.636E+00  7.227E-02  1.955E+00
   1    3    6     3     2    1.7175E+00  2.4905E-01   1.4684E+00  0.000E+00  0.000E+00  0.000E+00  1.07264E+03  1.727E+00  8.909E+00  6.682E-02  1.864E+00
   1    3    7     3     3    1.4684E+00  1.9718E-01   1.2712E+00  0.000E+00  0.000E+00  0.000E+00  1.06987E+03  1.555E+00  8.218E+00  5.547E-02  1.777E+00
   1    4    8     3     4    1.2712E+00  2.2567E-01   1.0456E+00  0.000E+00  0.000E+00  0.000E+00  1.06682E+03  1.364E+00  7.455E+00  6.709E-02  1.682E+00
   1    5    8     3     5    1.0456E+00  1.5790E-01   8.8768E-01  0.000E+00  0.000E+00  0.000E+00  1.06362E+03  1.164E+00  6.655E+00  4.991E-02  1.582E+00
   1    6    8     3     6    8.8768E-01  5.5980E-02   8.3170E-01  0.000E+00  0.000E+00  0.000E+00  1.06158E+03  1.036E+00  6.145E+00  1.844E-02  1.518E+00
   1    5   10     4     1    1.0000E+01  9.0919E-02   9.9091E+00  0.000E+00  0.000E+00  0.000E+00  1.07836E+03  6.368E-01  1.000E+01  2.500E-02  1.212E+00
   1    5    9     4     2    9.9091E+00  1.8158E-01   9.7275E+00  0.000E+00  0.000E+00  0.000E+00  1.07154E+03  6.315E-01  1.000E+01  5.000E-02  1.211E+00
   1    6    8     4     3    9.7275E+00  1.2689E-01   9.6006E+00  0.000E+00  0.000E+00  0.000E+00  1.06381E+03  6.256E-01  1.000E+01  3.500E-02  1.209E+00
   1    6    8     5     1    1.0432E+01  2.2686E-01   1.0205E+01  0.000E+00  0.000E+00  0.000E+00  1.05868E+03  6.790E-01  1.542E+01  6.166E-02  1.226E+00
   1    7    7     5     2    1.0205E+01  2.7894E-01   9.9265E+00  0.000E+00  0.000E+00  0.000E+00  1.05417E+03  6.732E-01  1.519E+01  7.594E-02  1.224E+00
   1    8    7     5     3    9.9265E+00  1.9221E-01   9.7343E+00  0.000E+00  0.000E+00  0.000E+00  1.04992E+03  6.676E-01  1.497E+01  5.241E-02  1.223E+00
   1    8    6     5     4    9.7343E+00  1.3577E-01   9.5985E+00  0.000E+00  0.000E+00  0.000E+00  1.04691E+03  6.637E-01  1.482E+01  3.706E-02  1.221E+00
   1    9    6     6     1    3.6350E+01  2.7151E-01   3.6078E+01  0.000E+00  0.000E+00  0.000E+00  1.04425E+03  1.525E+00  1.200E+01  6.000E-02  1.508E+00
   1   10    7     6     2    3.6078E+01  2.7109E-01   3.5807E+01  0.000E+00  0.000E+00  0.000E+00  1.03970E+03  1.518E+00  1.200E+01  6.000E-02  1.506E+00
   1   11    7     6     3    3.5807E+01  2.7068E-01   3.5537E+01  0.000E+00  0.000E+00  0.000E+00  1.03515E+03  1.511E+00  1.200E+01  6.000E-02  1.504E+00
   1   12    7     6     4    3.5537E+01  2.7027E-01   3.5266E+01  0.000E+00  0.000E+00  0.000E+00  1.03060E+03  1.504E+00  1.200E+01  6.000E-02  1.501E+00
   1   13    7     6     5    3.5266E+01  8.8704E-03   3.5257E+01  0.000E+00  0.000E+00  0.000E+00  1.02741E+03  1.501E+00  1.200E+01  2.400E-02  1.232E-01
   1   14    9     7     1    1.5000E+02  1.3396E+00   1.4866E+02  0.000E+00  0.000E+00  0.000E+00  1.03987E+03  2.288E+00  5.529E+01  5.593E-01  7.984E-01
   1   13    8     7     2    1.4866E+02  1.8436E+00   1.4682E+02  0.000E+00  0.000E+00  0.000E+00  1.03478E+03  2.279E+00  5.526E+01  6.148E-01  9.996E-01
   1   13    7     7     3    1.4682E+02  1.4795E+00   1.4534E+02  0.000E+00  0.000E+00  0.000E+00  1.02969E+03  2.270E+00  5.522E+01  5.584E-01  8.831E-01
   1   13    6     8     1    1.8059E+02  9.7846E-01   1.7962E+02  0.000E+00  0.000E+00  0.000E+00  1.02489E+03  3.017E+00  4.374E+01  4.458E-01  7.317E-01
   1   13    5     8     2    1.7962E+02  2.1429E-01   1.7940E+02  0.000E+00  0.000E+00  0.000E+00  1.01864E+03  3.013E+00  4.369E+01  4.452E-01  1.604E-01
   1   13    4     8     3    1.7940E+02 -2.3276E+00   1.8173E+02  0.000E+00  0.000E+00  0.000E+00  1.01239E+03  3.020E+00  4.379E+01  4.462E+00 -1.739E-01
   1   13    3     8     4    1.8173E+02 -3.5828E+00   1.8531E+02  0.000E+00  0.000E+00  0.000E+00  1.00616E+03  3.038E+00  4.405E+01  4.489E+00 -2.660E-01
   1   13    2     8     5    1.8531E+02 -2.5204E+00   1.8783E+02  0.000E+00  0.000E+00  0.000E+00  9.99932E+02  3.057E+00  4.433E+01  4.517E+00 -1.860E-01
   1   13    1     8     6    1.8783E+02 -1.9282E+00   1.8976E+02  0.000E+00  0.000E+00  0.000E+00  9.94946E+02  3.071E+00  4.452E+01  2.722E+00 -2.361E-01
   1    8    6     9     1    0.0000E+00  0.0000E+00   0.0000E+00  0.000E+00  0.000E+00  0.000E+00  1.07875E+03  0.000E+00  4.000E+00  0.000E+00  1.000E+00
   1    8    5     9     2    0.0000E+00  0.0000E+00   0.0000E+00  0.000E+00  0.000E+00  0.000E+00  1.07825E+03  0.000E+00  4.000E+00  0.000E+00  1.000E+00





UNSATURATED ZONE PACKAGE VOLUMETRIC BUDGET FOR  TIME STEP    30 STRESS PERIOD   27
  ------------------------------------------------------------------------------



     CUMULATIVE VOLUMES      L**3       RATES FOR THIS TIME STEP      L**3/T
     ------------------                 ------------------------

           IN:                                      IN:
           ---                                      ---
        INFILTRATION =  1034271751.8699          INFILTRATION =           0.8475

          OUT:                                     OUT:
          ----                                     ----
              UZF ET =   864744705.2641                UZF ET =           0.7500
        UZF RECHARGE =       73224.0000          UZF RECHARGE =       0.0000E+00

            IN - OUT =   169453822.6058              IN - OUT =       9.7500E-02

          STORAGE:                                 STORAGE:
          --------                                 --------
      STORAGE CHANGE =   169574025.3230        STORAGE CHANGE =       9.7500E-02

 PERCENT DISCREPANCY IS DIFFERENCE BETWEEN IN-OUT MINUS CHANGE IN STORAGE
 DIVIDED BY THE AVERAGE OF IN AND OUT TIMES 100

 PERCENT DISCREPANCY =          -0.00     PERCENT DISCREPANCY =           0.00






1
  VOLUMETRIC BUDGET FOR AGRICULTURAL FIELDS AT  END OF TIME STEP   30, STRESS PERIOD  27
  ------------------------------------------------------------------------------

     CUMULATIVE VOLUMES      L**3       RATES FOR THIS TIME STEP      L**3/T
     ------------------                 ------------------------

           IN:                                      IN:
           ---                                      ---
           AG WELLS      =   363470336.0000             AG WELLS      =           0.0000
      DIVERSION SEGMENTS =   612812416.0000        DIVERSION SEGMENTS =           0.0000
           GW IRRIGATION =           0.0000             GW IRRIGATION =           0.0000
           SW IRRIGATION =           0.0000             SW IRRIGATION =           0.0000
        SYSTEM LOSSES GW =           0.0000          SYSTEM LOSSES GW =           0.0000
        SYSTEM LOSSES SW =           0.0000          SYSTEM LOSSES SW =           0.0000

                TOTAL IN =   976282752.0000                  TOTAL IN =           0.0000

          OUT:                                     OUT:
          ----                                     ----
           AG WELLS      =           0.0000             AG WELLS      =           0.0000
      DIVERSION SEGMENTS =           0.0000        DIVERSION SEGMENTS =           0.0000
           GW IRRIGATION =   363470336.0000             GW IRRIGATION =           0.0000
           SW IRRIGATION =   612825280.0000             SW IRRIGATION =           0.0000
        SYSTEM LOSSES GW =           0.0000          SYSTEM LOSSES GW =           0.0000
        SYSTEM LOSSES SW =           0.0000          SYSTEM LOSSES SW =           0.0000

               TOTAL OUT =   976295616.0000                 TOTAL OUT =           0.0000

                IN - OUT =      -12864.0000                  IN - OUT =           0.0000

     PERCENT DISCREPANCY =          -0.00         PERCENT DISCREPANCY =           0.00



1
  VOLUMETRIC BUDGET FOR ENTIRE MODEL AT END OF TIME STEP   30, STRESS PERIOD  27
  ------------------------------------------------------------------------------

     CUMULATIVE VOLUMES      L**3       RATES FOR THIS TIME STEP      L**3/T
     ------------------                 ------------------------

           IN:                                      IN:
           ---                                      ---
             STORAGE     =   599338048.0000               STORAGE     =           3.2292
       CONSTANT HEAD     =           0.0000         CONSTANT HEAD     =           0.0000
     HEAD DEP BOUNDS     =    19567992.0000       HEAD DEP BOUNDS     =           0.2860
      STREAM LEAKAGE     =   811856960.0000        STREAM LEAKAGE     =          12.0971
        UZF RECHARGE     =       73223.9531          UZF RECHARGE     =           0.0000
               GW ET     =           0.0000                 GW ET     =           0.0000
     SURFACE LEAKAGE     =           0.0000       SURFACE LEAKAGE     =           0.0000
           AG WELLS      =           0.0000             AG WELLS      =           0.0000

                TOTAL IN =  1430836224.0000                  TOTAL IN =          15.6123

          OUT:                                     OUT:
          ----                                     ----
             STORAGE     =   306028000.0000               STORAGE     =           4.9630
       CONSTANT HEAD     =           0.0000         CONSTANT HEAD     =           0.0000
     HEAD DEP BOUNDS     =    19888204.0000       HEAD DEP BOUNDS     =           0.2908
      STREAM LEAKAGE     =   739235392.0000        STREAM LEAKAGE     =          10.3590
        UZF RECHARGE     =           0.0000          UZF RECHARGE     =           0.0000
               GW ET     =     2220319.5000                 GW ET     =           0.0000
     SURFACE LEAKAGE     =           0.0000       SURFACE LEAKAGE     =           0.0000
           AG WELLS      =   363470336.0000             AG WELLS      =           0.0000

               TOTAL OUT =  1430842240.0000                 TOTAL OUT =          15.6128

                IN - OUT =       -6016.0000                  IN - OUT =      -4.9305E-04

     PERCENT DISCREPANCY =          -0.00         PERCENT DISCREPANCY =          -0.00






         TIME SUMMARY AT END OF TIME STEP   30 IN STRESS PERIOD   27
                    SECONDS     MINUTES      HOURS       DAYS        YEARS
                    -----------------------------------------------------------
   TIME STEP LENGTH  87667.      1461.1      24.352      1.0147     2.77799E-03
 STRESS PERIOD TIME 2.63000E+06  43833.      730.56      30.440     8.33397E-02
         TOTAL TIME 6.84668E+07 1.14111E+06  19019.      792.44      2.1696    
1
1
                            STRESS PERIOD NO.   28, LENGTH =   2630000.    
                            -----------------------------------------------

                              NUMBER OF TIME STEPS =    30

                               MULTIPLIER FOR DELT =     1.000

                            INITIAL TIME STEP SIZE =   87666.66    

 REUSING NON-PARAMETER GHB CELLS FROM LAST STRESS PERIOD

      2 GHB CELLS

 REUSING STREAM SEGMENT DATA FROM LAST STRESS PERIOD



            AREAL INFILTRATION RATE
 READING ON UNIT   19 WITH FORMAT: (FREE)              

            1           2           3           4           5           6           7           8           9          10
 ........................................................................................................................
   1   1.0000E-10  2.0000E-10   0.000       0.000       0.000       0.000       0.000       0.000       0.000       0.000    
   2   2.0000E-10  1.0000E-10  2.0000E-10   0.000       0.000      8.0000E-10  8.0000E-10  5.0000E-10   0.000       0.000    
   3    0.000      5.0000E-10  1.0000E-10  1.0000E-10  8.0000E-10  8.0000E-10  5.0000E-10  5.0000E-10   0.000       0.000    
   4   8.0000E-10  5.0000E-10  1.0000E-10  1.0000E-10  1.0000E-10  1.0000E-10  1.0000E-10  1.0000E-10  2.0000E-10   0.000    
   5   8.0000E-10  5.0000E-10  1.0000E-10  1.0000E-10  1.0000E-10  1.0000E-10  1.0000E-10  1.0000E-10  1.0000E-10  1.0000E-10
   6   8.0000E-10  5.0000E-10  5.0000E-10  2.0000E-10  2.0000E-10  1.0000E-10  1.0000E-10  1.0000E-10  1.0000E-10  5.0000E-10
   7   8.0000E-10  5.0000E-10  5.0000E-10  2.0000E-10  2.0000E-10  1.0000E-10  1.0000E-10  2.0000E-10  2.0000E-10   0.000    
   8    0.000      5.0000E-10  5.0000E-10  2.0000E-10  2.0000E-10  1.0000E-10  1.0000E-10  2.0000E-10  5.0000E-10   0.000    
   9    0.000      5.0000E-10  5.0000E-10  2.0000E-10  2.0000E-10  1.0000E-10  1.0000E-10  2.0000E-10  5.0000E-10   0.000    
  10    0.000      5.0000E-10  5.0000E-10  2.0000E-10  2.0000E-10  1.0000E-10  1.0000E-10  2.0000E-10  5.0000E-10  8.0000E-10
  11    0.000      1.0000E-10  1.0000E-10  1.0000E-10  1.0000E-10  1.0000E-10  1.0000E-10  2.0000E-10  5.0000E-10   0.000    
  12   1.0000E-10  1.0000E-10  1.0000E-10  1.0000E-10  1.0000E-10  1.0000E-10  1.0000E-10  1.0000E-10  2.0000E-10   0.000    
  13   1.0000E-10  1.0000E-10  2.0000E-10  2.0000E-10  2.0000E-10  2.0000E-10  2.0000E-10  1.0000E-10  1.0000E-10   0.000    
  14    0.000      2.0000E-10  5.0000E-10  5.0000E-10  5.0000E-10  5.0000E-10  5.0000E-10  2.0000E-10  1.0000E-10   0.000    
  15    0.000       0.000      8.0000E-10  8.0000E-10  8.0000E-10  8.0000E-10   0.000       0.000       0.000       0.000    

                  ET RATE =  5.000000E-10

 USING ET EXTINCTION DEPTH FROM PREVIOUS STRESS PERIOD. CURRENT PERIOD IS:      28

 USING EXTINCTION WATER CONTENT FROM PREVIOUS STRESS PERIOD. CURRENT PERIOD IS:      28

 USING AIR ENTRY PRESSURE FROM PREVIOUS STRESS PERIOD. CURRENT PERIOD IS:      28

 USING ROOT PRESSURE HEAD FROM PREVIOUS STRESS PERIOD. CURRENT PERIOD IS:      28

 USING ROOT ACTIVITY FROM PREVIOUS STRESS PERIOD. CURRENT PERIOD IS:      28

 PROCESSING AG STRESS PERIOD DATA

 READING AG STRESS PERIOD DATA

 READING IRRIGATION SEGMENT

 READING IRRIGATION WELL

 READING SUPPLEMENTAL WELL

 END PROCESSING AG STRESS PERIOD DATA OPTIONS
 
 SOLVING FOR HEAD 
                                                   Max.-Head-Change                         Max.-Flux-Residual
  Residual-Control   Outer-Iter.   Inner-Iter.     Column Row Layer    Maximum-Head-Change  Column Row Layer    Maximum-Flux-Residual          L2-NORM 
          0                 1           2             4    7     1       0.1007337926E-01       4    7    1         0.5285706835E+00      0.1486335982E+01
          0                 2           2             4    7     1      -0.9798672996E-03       4    7    1        -0.5285721586E-01      0.1477237469E+00
          0                 3           1             4    7     1       0.6672530982E-04       4    7    1         0.3700005305E-02      0.1025757778E-01

    ------------------------------------------------
       NWT REQUIRED            3 OUTER ITERATIONS 
       AND A TOTAL OF          5 INNER ITERATIONS.
    ------------------------------------------------

 NO OUTPUT CONTROL FOR STRESS PERIOD   28   TIME STEP    1
 
 SOLVING FOR HEAD 
                                                   Max.-Head-Change                         Max.-Flux-Residual
  Residual-Control   Outer-Iter.   Inner-Iter.     Column Row Layer    Maximum-Head-Change  Column Row Layer    Maximum-Flux-Residual          L2-NORM 
          0                 1           2             4    7     1       0.9975613671E-02       4   13    1         0.5671861758E+00      0.1675040155E+01
          0                 2           2             4    7     1      -0.9703573202E-03       4   13    1        -0.5613383459E-01      0.1656638674E+00
          0                 3           1             4    7     1       0.6607771506E-04       4   13    1         0.3872712403E-02      0.1142629794E-01

    ------------------------------------------------
       NWT REQUIRED            3 OUTER ITERATIONS 
       AND A TOTAL OF          5 INNER ITERATIONS.
    ------------------------------------------------

 NO OUTPUT CONTROL FOR STRESS PERIOD   28   TIME STEP    2
 
 SOLVING FOR HEAD 
                                                   Max.-Head-Change                         Max.-Flux-Residual
  Residual-Control   Outer-Iter.   Inner-Iter.     Column Row Layer    Maximum-Head-Change  Column Row Layer    Maximum-Flux-Residual          L2-NORM 
          0                 1           2             4    7     1       0.9879582340E-02       4    7    1         0.5183250876E+00      0.1618963096E+01
          0                 2           2             4    7     1      -0.9610160382E-03       4    7    1        -0.5183264909E-01      0.1602886674E+00
          0                 3           1             4    7     1       0.6544160926E-04       4    7    1         0.3628285670E-02      0.1107319592E-01

    ------------------------------------------------
       NWT REQUIRED            3 OUTER ITERATIONS 
       AND A TOTAL OF          5 INNER ITERATIONS.
    ------------------------------------------------

 NO OUTPUT CONTROL FOR STRESS PERIOD   28   TIME STEP    3
 
 SOLVING FOR HEAD 
                                                   Max.-Head-Change                         Max.-Flux-Residual
  Residual-Control   Outer-Iter.   Inner-Iter.     Column Row Layer    Maximum-Head-Change  Column Row Layer    Maximum-Flux-Residual          L2-NORM 
          0                 1           2             4    7     1       0.9785097912E-02       4    7    1         0.5133312405E+00      0.1569222016E+01
          0                 2           2             4    7     1      -0.9518252292E-03       4    7    1        -0.5133326095E-01      0.1555211503E+00
          0                 3           1             4    7     1       0.6481574975E-04       4    7    1         0.3593328528E-02      0.1075794797E-01

    ------------------------------------------------
       NWT REQUIRED            3 OUTER ITERATIONS 
       AND A TOTAL OF          5 INNER ITERATIONS.
    ------------------------------------------------

 NO OUTPUT CONTROL FOR STRESS PERIOD   28   TIME STEP    4
 
 SOLVING FOR HEAD 
                                                   Max.-Head-Change                         Max.-Flux-Residual
  Residual-Control   Outer-Iter.   Inner-Iter.     Column Row Layer    Maximum-Head-Change  Column Row Layer    Maximum-Flux-Residual          L2-NORM 
          0                 1           2             4    7     1       0.9692252484E-02       4    7    1         0.5084249697E+00      0.1525023913E+01
          0                 2           2             4    7     1      -0.9427938517E-03       4    7    1        -0.5084263056E-01      0.1512830995E+00
          0                 3           1             4    7     1       0.6420074715E-04       4    7    1         0.3558984403E-02      0.1047776975E-01

    ------------------------------------------------
       NWT REQUIRED            3 OUTER ITERATIONS 
       AND A TOTAL OF          5 INNER ITERATIONS.
    ------------------------------------------------

 NO OUTPUT CONTROL FOR STRESS PERIOD   28   TIME STEP    5
 
 SOLVING FOR HEAD 
                                                   Max.-Head-Change                         Max.-Flux-Residual
  Residual-Control   Outer-Iter.   Inner-Iter.     Column Row Layer    Maximum-Head-Change  Column Row Layer    Maximum-Flux-Residual          L2-NORM 
          0                 1           2             4    7     1       0.9600862897E-02       4    7    1         0.5035963063E+00      0.1485664877E+01
          0                 2           2             4    7     1      -0.9339040899E-03       4    7    1        -0.5035976102E-01      0.1475137160E+00
          0                 3           1             4    7     1       0.6359538792E-04       4    7    1         0.3525183561E-02      0.1022864290E-01

    ------------------------------------------------
       NWT REQUIRED            3 OUTER ITERATIONS 
       AND A TOTAL OF          5 INNER ITERATIONS.
    ------------------------------------------------

 NO OUTPUT CONTROL FOR STRESS PERIOD   28   TIME STEP    6
 
 SOLVING FOR HEAD 
                                                   Max.-Head-Change                         Max.-Flux-Residual
  Residual-Control   Outer-Iter.   Inner-Iter.     Column Row Layer    Maximum-Head-Change  Column Row Layer    Maximum-Flux-Residual          L2-NORM 
          0                 1           2             4    7     1       0.9511024672E-02       4    7    1         0.4988504982E+00      0.1450521209E+01
          0                 2           2             4    7     1      -0.9251652347E-03       4    7    1        -0.4988517712E-01      0.1441321801E+00
          0                 3           1             4    7     1       0.6300030470E-04       4    7    1         0.3491962696E-02      0.1000519600E-01

    ------------------------------------------------
       NWT REQUIRED            3 OUTER ITERATIONS 
       AND A TOTAL OF          5 INNER ITERATIONS.
    ------------------------------------------------

 NO OUTPUT CONTROL FOR STRESS PERIOD   28   TIME STEP    7
 
 SOLVING FOR HEAD 
                                                   Max.-Head-Change                         Max.-Flux-Residual
  Residual-Control   Outer-Iter.   Inner-Iter.     Column Row Layer    Maximum-Head-Change  Column Row Layer    Maximum-Flux-Residual          L2-NORM 
          0                 1           2             4    7     1       0.9422691392E-02       4    7    1         0.4941851258E+00      0.1419034571E+01
          0                 2           2             4    7     1      -0.9165727712E-03       4    7    1        -0.4941863689E-01      0.1411061999E+00
          0                 3           1             4    7     1       0.6241519062E-04       4    7    1         0.3459304910E-02      0.9804616432E-02

    ------------------------------------------------
       NWT REQUIRED            3 OUTER ITERATIONS 
       AND A TOTAL OF          5 INNER ITERATIONS.
    ------------------------------------------------

 NO OUTPUT CONTROL FOR STRESS PERIOD   28   TIME STEP    8
 
 SOLVING FOR HEAD 
                                                   Max.-Head-Change                         Max.-Flux-Residual
  Residual-Control   Outer-Iter.   Inner-Iter.     Column Row Layer    Maximum-Head-Change  Column Row Layer    Maximum-Flux-Residual          L2-NORM 
          0                 1           2             4    7     1       0.9335686107E-02       4    7    1         0.4895904097E+00      0.1390727306E+01
          0                 2           2             4    7     1      -0.9081094866E-03       4    7    1        -0.4895916237E-01      0.1383825686E+00
          0                 3           1             4    7     1       0.6183887298E-04       4    7    1         0.3427141708E-02      0.9623673836E-02

    ------------------------------------------------
       NWT REQUIRED            3 OUTER ITERATIONS 
       AND A TOTAL OF          5 INNER ITERATIONS.
    ------------------------------------------------

 NO OUTPUT CONTROL FOR STRESS PERIOD   28   TIME STEP    9
 
 SOLVING FOR HEAD 
                                                   Max.-Head-Change                         Max.-Flux-Residual
  Residual-Control   Outer-Iter.   Inner-Iter.     Column Row Layer    Maximum-Head-Change  Column Row Layer    Maximum-Flux-Residual          L2-NORM 
          0                 1           2             4    7     1       0.9250111489E-02       4    7    1         0.4850719208E+00      0.1365184637E+01
          0                 2           2             4    7     1      -0.8997853680E-03       4    7    1        -0.4850731066E-01      0.1359197472E+00
          0                 3           1             4    7     1       0.6127203162E-04       4    7    1         0.3395512097E-02      0.9459200452E-02

    ------------------------------------------------
       NWT REQUIRED            3 OUTER ITERATIONS 
       AND A TOTAL OF          5 INNER ITERATIONS.
    ------------------------------------------------

 NO OUTPUT CONTROL FOR STRESS PERIOD   28   TIME STEP   10
 
 SOLVING FOR HEAD 
                                                   Max.-Head-Change                         Max.-Flux-Residual
  Residual-Control   Outer-Iter.   Inner-Iter.     Column Row Layer    Maximum-Head-Change  Column Row Layer    Maximum-Flux-Residual          L2-NORM 
          0                 1           2             4    7     1       0.9165930841E-02       4    7    1         0.4806276098E+00      0.1342046985E+01
          0                 2           2             4    7     1      -0.8915968460E-03       4    7    1        -0.4806287684E-01      0.1336864600E+00
          0                 3           1             4    7     1       0.6071442407E-04       4    7    1         0.3364401731E-02      0.9310238619E-02

    ------------------------------------------------
       NWT REQUIRED            3 OUTER ITERATIONS 
       AND A TOTAL OF          5 INNER ITERATIONS.
    ------------------------------------------------

 NO OUTPUT CONTROL FOR STRESS PERIOD   28   TIME STEP   11
 
 SOLVING FOR HEAD 
                                                   Max.-Head-Change                         Max.-Flux-Residual
  Residual-Control   Outer-Iter.   Inner-Iter.     Column Row Layer    Maximum-Head-Change  Column Row Layer    Maximum-Flux-Residual          L2-NORM 
          0                 1           2             4    7     1       0.9083102148E-02       4    7    1         0.4762555741E+00      0.1320980091E+01
          0                 2           2             4    7     1      -0.8835398342E-03       4    7    1        -0.4762567064E-01      0.1316494806E+00
          0                 3           1             4    7     1       0.6016577235E-04       4    7    1         0.3333797330E-02      0.9174548999E-02

    ------------------------------------------------
       NWT REQUIRED            3 OUTER ITERATIONS 
       AND A TOTAL OF          5 INNER ITERATIONS.
    ------------------------------------------------

 NO OUTPUT CONTROL FOR STRESS PERIOD   28   TIME STEP   12
 
 SOLVING FOR HEAD 
                                                   Max.-Head-Change                         Max.-Flux-Residual
  Residual-Control   Outer-Iter.   Inner-Iter.     Column Row Layer    Maximum-Head-Change  Column Row Layer    Maximum-Flux-Residual          L2-NORM 
          0                 1           2             4    7     1       0.9001450403E-02       4    7    1         0.4719462618E+00      0.1301711307E+01
          0                 2           2             4    7     1      -0.8755973073E-03       4    7    1        -0.4719473682E-01      0.1297829584E+00
          0                 3           1             4    7     1       0.5962491558E-04       4    7    1         0.3303631951E-02      0.9048746261E-02

    ------------------------------------------------
       NWT REQUIRED            3 OUTER ITERATIONS 
       AND A TOTAL OF          5 INNER ITERATIONS.
    ------------------------------------------------

 NO OUTPUT CONTROL FOR STRESS PERIOD   28   TIME STEP   13
 
 SOLVING FOR HEAD 
                                                   Max.-Head-Change                         Max.-Flux-Residual
  Residual-Control   Outer-Iter.   Inner-Iter.     Column Row Layer    Maximum-Head-Change  Column Row Layer    Maximum-Flux-Residual          L2-NORM 
          0                 1           2             4    7     1       0.8921087703E-02       4    7    1         0.4677053457E+00      0.1284010971E+01
          0                 2           2             4    7     1      -0.8677801712E-03       4    7    1        -0.4677064272E-01      0.1280651668E+00
          0                 3           1             4    7     1       0.5909259834E-04       4    7    1         0.3273945376E-02      0.8933525414E-02

    ------------------------------------------------
       NWT REQUIRED            3 OUTER ITERATIONS 
       AND A TOTAL OF          5 INNER ITERATIONS.
    ------------------------------------------------

 NO OUTPUT CONTROL FOR STRESS PERIOD   28   TIME STEP   14
 
 SOLVING FOR HEAD 
                                                   Max.-Head-Change                         Max.-Flux-Residual
  Residual-Control   Outer-Iter.   Inner-Iter.     Column Row Layer    Maximum-Head-Change  Column Row Layer    Maximum-Flux-Residual          L2-NORM 
          0                 1           2             4    7     1       0.8841976579E-02       4    7    1         0.4635312646E+00      0.1267664695E+01
          0                 2           2             4    7     1      -0.8600847806E-03       4    7    1        -0.4635323220E-01      0.1264757153E+00
          0                 3           1             4    7     1       0.5856857094E-04       4    7    1         0.3244726657E-02      0.8826601792E-02

    ------------------------------------------------
       NWT REQUIRED            3 OUTER ITERATIONS 
       AND A TOTAL OF          5 INNER ITERATIONS.
    ------------------------------------------------

 NO OUTPUT CONTROL FOR STRESS PERIOD   28   TIME STEP   15
 
 SOLVING FOR HEAD 
                                                   Max.-Head-Change                         Max.-Flux-Residual
  Residual-Control   Outer-Iter.   Inner-Iter.     Column Row Layer    Maximum-Head-Change  Column Row Layer    Maximum-Flux-Residual          L2-NORM 
          0                 1           2             4    7     1       0.8764085302E-02       4    7    1         0.4594220758E+00      0.1252502227E+01
          0                 2           2             4    7     1      -0.8525080489E-03       4    7    1        -0.4594231098E-01      0.1249983580E+00
          0                 3           1             4    7     1       0.5805262415E-04       4    7    1         0.3215962185E-02      0.8726817882E-02

    ------------------------------------------------
       NWT REQUIRED            3 OUTER ITERATIONS 
       AND A TOTAL OF          5 INNER ITERATIONS.
    ------------------------------------------------

 NO OUTPUT CONTROL FOR STRESS PERIOD   28   TIME STEP   16
 
 SOLVING FOR HEAD 
                                                   Max.-Head-Change                         Max.-Flux-Residual
  Residual-Control   Outer-Iter.   Inner-Iter.     Column Row Layer    Maximum-Head-Change  Column Row Layer    Maximum-Flux-Residual          L2-NORM 
          0                 1           2             4    7     1       0.8687243981E-02       4    7    1         0.4553687604E+00      0.1238364079E+01
          0                 2           2             4    7     1      -0.8450334495E-03       4    7    1        -0.4553697715E-01      0.1236181294E+00
          0                 3           1             4    7     1       0.5754363142E-04       4    7    1         0.3187588814E-02      0.8633146318E-02

    ------------------------------------------------
       NWT REQUIRED            3 OUTER ITERATIONS 
       AND A TOTAL OF          5 INNER ITERATIONS.
    ------------------------------------------------

 NO OUTPUT CONTROL FOR STRESS PERIOD   28   TIME STEP   17
 
 SOLVING FOR HEAD 
                                                   Max.-Head-Change                         Max.-Flux-Residual
  Residual-Control   Outer-Iter.   Inner-Iter.     Column Row Layer    Maximum-Head-Change  Column Row Layer    Maximum-Flux-Residual          L2-NORM 
          0                 1           2             4    7     1       0.8611701409E-02       4    7    1         0.4513846313E+00      0.1225131417E+01
          0                 2           2             4    7     1      -0.8376851847E-03       4    7    1        -0.4513856205E-01      0.1223239623E+00
          0                 3           1             4    7     1       0.5704324247E-04       4    7    1         0.3159699767E-02      0.8545236189E-02

    ------------------------------------------------
       NWT REQUIRED            3 OUTER ITERATIONS 
       AND A TOTAL OF          5 INNER ITERATIONS.
    ------------------------------------------------

 NO OUTPUT CONTROL FOR STRESS PERIOD   28   TIME STEP   18
 
 SOLVING FOR HEAD 
                                                   Max.-Head-Change                         Max.-Flux-Residual
  Residual-Control   Outer-Iter.   Inner-Iter.     Column Row Layer    Maximum-Head-Change  Column Row Layer    Maximum-Flux-Residual          L2-NORM 
          0                 1           2             4    7     1       0.8537156458E-02       4    7    1         0.4474530924E+00      0.1212688188E+01
          0                 2           2             4    7     1      -0.8304339619E-03       4    7    1        -0.4474540599E-01      0.1211065020E+00
          0                 3           1             4    7     1       0.5654946168E-04       4    7    1         0.3132178864E-02      0.8462356039E-02

    ------------------------------------------------
       NWT REQUIRED            3 OUTER ITERATIONS 
       AND A TOTAL OF          5 INNER ITERATIONS.
    ------------------------------------------------

 NO OUTPUT CONTROL FOR STRESS PERIOD   28   TIME STEP   19
 
 SOLVING FOR HEAD 
                                                   Max.-Head-Change                         Max.-Flux-Residual
  Residual-Control   Outer-Iter.   Inner-Iter.     Column Row Layer    Maximum-Head-Change  Column Row Layer    Maximum-Flux-Residual          L2-NORM 
          0                 1           2             4    7     1       0.8463717322E-02       4    7    1         0.4435806527E+00      0.1200938906E+01
          0                 2           2             4    7     1      -0.8232903061E-03       4    7    1        -0.4435815997E-01      0.1199515703E+00
          0                 3           1             4    7     1       0.5606300568E-04       4    7    1         0.3105071652E-02      0.8383820019E-02

    ------------------------------------------------
       NWT REQUIRED            3 OUTER ITERATIONS 
       AND A TOTAL OF          5 INNER ITERATIONS.
    ------------------------------------------------

 NO OUTPUT CONTROL FOR STRESS PERIOD   28   TIME STEP   20
 
 SOLVING FOR HEAD 
                                                   Max.-Head-Change                         Max.-Flux-Residual
  Residual-Control   Outer-Iter.   Inner-Iter.     Column Row Layer    Maximum-Head-Change  Column Row Layer    Maximum-Flux-Residual          L2-NORM 
          0                 1           2             4    7     1       0.8391352573E-02       4    7    1         0.4397655478E+00      0.1189788716E+01
          0                 2           2             4    7     1      -0.8162511593E-03       4    7    1        -0.4397664744E-01      0.1188551786E+00
          0                 3           1             4    7     1       0.5558366598E-04       4    7    1         0.3078365787E-02      0.8308344218E-02

    ------------------------------------------------
       NWT REQUIRED            3 OUTER ITERATIONS 
       AND A TOTAL OF          5 INNER ITERATIONS.
    ------------------------------------------------

 NO OUTPUT CONTROL FOR STRESS PERIOD   28   TIME STEP   21
 
 SOLVING FOR HEAD 
                                                   Max.-Head-Change                         Max.-Flux-Residual
  Residual-Control   Outer-Iter.   Inner-Iter.     Column Row Layer    Maximum-Head-Change  Column Row Layer    Maximum-Flux-Residual          L2-NORM 
          0                 1           2             4    7     1       0.8320047675E-02       4    7    1         0.4360061482E+00      0.1179190384E+01
          0                 2           2             4    7     1      -0.8093151076E-03       4    7    1        -0.4360070550E-01      0.1178115922E+00
          0                 3           1             4    7     1       0.5511134683E-04       4    7    1         0.3052049848E-02      0.8236904694E-02

    ------------------------------------------------
       NWT REQUIRED            3 OUTER ITERATIONS 
       AND A TOTAL OF          5 INNER ITERATIONS.
    ------------------------------------------------

 NO OUTPUT CONTROL FOR STRESS PERIOD   28   TIME STEP   22
 
 SOLVING FOR HEAD 
                                                   Max.-Head-Change                         Max.-Flux-Residual
  Residual-Control   Outer-Iter.   Inner-Iter.     Column Row Layer    Maximum-Head-Change  Column Row Layer    Maximum-Flux-Residual          L2-NORM 
          0                 1           2             4    7     1       0.8249769521E-02       4    7    1         0.4323017005E+00      0.1169068299E+01
          0                 2           2             4    7     1      -0.8024789317E-03       4    7    1        -0.4323025883E-01      0.1168134531E+00
          0                 3           1             4    7     1       0.5464582909E-04       4    7    1         0.3026118596E-02      0.8168454421E-02

    ------------------------------------------------
       NWT REQUIRED            3 OUTER ITERATIONS 
       AND A TOTAL OF          5 INNER ITERATIONS.
    ------------------------------------------------

 NO OUTPUT CONTROL FOR STRESS PERIOD   28   TIME STEP   23
 
 SOLVING FOR HEAD 
                                                   Max.-Head-Change                         Max.-Flux-Residual
  Residual-Control   Outer-Iter.   Inner-Iter.     Column Row Layer    Maximum-Head-Change  Column Row Layer    Maximum-Flux-Residual          L2-NORM 
          0                 1           2             4    7     1       0.8180488154E-02       4    7    1         0.4286504877E+00      0.1159359960E+01
          0                 2           2             4    7     1      -0.7957397160E-03       4    7    1        -0.4286513569E-01      0.1158547027E+00
          0                 3           1             4    7     1       0.5418691358E-04       4    7    1         0.3000559980E-02      0.8102310448E-02

    ------------------------------------------------
       NWT REQUIRED            3 OUTER ITERATIONS 
       AND A TOTAL OF          5 INNER ITERATIONS.
    ------------------------------------------------

 NO OUTPUT CONTROL FOR STRESS PERIOD   28   TIME STEP   24
 
 SOLVING FOR HEAD 
                                                   Max.-Head-Change                         Max.-Flux-Residual
  Residual-Control   Outer-Iter.   Inner-Iter.     Column Row Layer    Maximum-Head-Change  Column Row Layer    Maximum-Flux-Residual          L2-NORM 
          0                 1           2             4    7     1       0.8112189251E-02       4    7    1         0.4250509568E+00      0.1150050655E+01
          0                 2           2             4    7     1      -0.7890960685E-03       4    7    1        -0.4250518081E-01      0.1149341822E+00
          0                 3           1             4    7     1       0.5373450564E-04       4    7    1         0.2975363126E-02      0.8038893991E-02

    ------------------------------------------------
       NWT REQUIRED            3 OUTER ITERATIONS 
       AND A TOTAL OF          5 INNER ITERATIONS.
    ------------------------------------------------

 NO OUTPUT CONTROL FOR STRESS PERIOD   28   TIME STEP   25
 
 SOLVING FOR HEAD 
                                                   Max.-Head-Change                         Max.-Flux-Residual
  Residual-Control   Outer-Iter.   Inner-Iter.     Column Row Layer    Maximum-Head-Change  Column Row Layer    Maximum-Flux-Residual          L2-NORM 
          0                 1           2             4    7     1       0.8044846111E-02       4    7    1         0.4215023653E+00      0.1141076921E+01
          0                 2           2             4    7     1      -0.7825453912E-03       4    7    1        -0.4215031988E-01      0.1140457642E+00
          0                 3           1             4    7     1       0.5328842918E-04       4    7    1         0.2950522875E-02      0.7977411024E-02

    ------------------------------------------------
       NWT REQUIRED            3 OUTER ITERATIONS 
       AND A TOTAL OF          5 INNER ITERATIONS.
    ------------------------------------------------

 NO OUTPUT CONTROL FOR STRESS PERIOD   28   TIME STEP   26
 
 SOLVING FOR HEAD 
                                                   Max.-Head-Change                         Max.-Flux-Residual
  Residual-Control   Outer-Iter.   Inner-Iter.     Column Row Layer    Maximum-Head-Change  Column Row Layer    Maximum-Flux-Residual          L2-NORM 
          0                 1           2             4    7     1       0.7978432827E-02       4    7    1         0.4180033287E+00      0.1132403199E+01
          0                 2           2             4    7     1      -0.7760851643E-03       4    7    1        -0.4180041451E-01      0.1131864442E+00
          0                 3           1             4    7     1       0.5284851179E-04       4    7    1         0.2926029503E-02      0.7918168128E-02

    ------------------------------------------------
       NWT REQUIRED            3 OUTER ITERATIONS 
       AND A TOTAL OF          5 INNER ITERATIONS.
    ------------------------------------------------

 NO OUTPUT CONTROL FOR STRESS PERIOD   28   TIME STEP   27
 
 SOLVING FOR HEAD 
                                                   Max.-Head-Change                         Max.-Flux-Residual
  Residual-Control   Outer-Iter.   Inner-Iter.     Column Row Layer    Maximum-Head-Change  Column Row Layer    Maximum-Flux-Residual          L2-NORM 
          0                 1           2             4    7     1       0.7912936997E-02       4    7    1         0.4145525036E+00      0.1124021533E+01
          0                 2           2             4    7     1      -0.7697141809E-03       4    7    1        -0.4145533032E-01      0.1123549415E+00
          0                 3           1             4    7     1       0.5241467193E-04       4    7    1         0.2901873606E-02      0.7860404861E-02

    ------------------------------------------------
       NWT REQUIRED            3 OUTER ITERATIONS 
       AND A TOTAL OF          5 INNER ITERATIONS.
    ------------------------------------------------

 NO OUTPUT CONTROL FOR STRESS PERIOD   28   TIME STEP   28
 
 SOLVING FOR HEAD 
                                                   Max.-Head-Change                         Max.-Flux-Residual
  Residual-Control   Outer-Iter.   Inner-Iter.     Column Row Layer    Maximum-Head-Change  Column Row Layer    Maximum-Flux-Residual          L2-NORM 
          0                 1           2             4    7     1       0.7848326311E-02       4    7    1         0.4111492473E+00      0.1115877714E+01
          0                 2           2             4    7     1      -0.7634292991E-03       4    7    1        -0.4111500308E-01      0.1115465379E+00
          0                 3           1             4    7     1       0.5198669494E-04       4    7    1         0.2878050705E-02      0.7804499570E-02

    ------------------------------------------------
       NWT REQUIRED            3 OUTER ITERATIONS 
       AND A TOTAL OF          5 INNER ITERATIONS.
    ------------------------------------------------

 NO OUTPUT CONTROL FOR STRESS PERIOD   28   TIME STEP   29
 
 SOLVING FOR HEAD 
                                                   Max.-Head-Change                         Max.-Flux-Residual
  Residual-Control   Outer-Iter.   Inner-Iter.     Column Row Layer    Maximum-Head-Change  Column Row Layer    Maximum-Flux-Residual          L2-NORM 
          0                 1           2             4    7     1       0.7784588938E-02       4    7    1         0.4077918842E+00      0.1107983127E+01
          0                 2           2             4    7     1      -0.7572293677E-03       4    7    1        -0.4077926518E-01      0.1107621826E+00
          0                 3           1             4    7     1       0.5156450320E-04       4    7    1         0.2854549081E-02      0.7750123540E-02

    ------------------------------------------------
       NWT REQUIRED            3 OUTER ITERATIONS 
       AND A TOTAL OF          5 INNER ITERATIONS.
    ------------------------------------------------

 NO OUTPUT CONTROL FOR STRESS PERIOD   28   TIME STEP   30



 STREAM LISTING     PERIOD     28   STEP       30

 LAYER ROW COL. STREAM  RCH.  FLOW INTO     FLOW TO   FLOW OUT OF   OVRLND.     DIRECT     STREAM       STREAM     STREAM     STREAM   STREAMBED  STREAMBED
                SEG.NO.  NO.  STRM. RCH.    AQUIFER    STRM. RCH.    RUNOFF     PRECIP       ET          HEAD       DEPTH      WIDTH   CONDCTNC.   GRADIENT

   1    1    1     1     1    5.7748E+01  3.6407E-01   5.7384E+01  0.000E+00  0.000E+00  0.000E+00  1.09455E+03  1.498E+00  1.799E+01  8.095E-02  1.499E+00
   1    2    2     1     2    5.7384E+01  5.6377E-01   5.6820E+01  0.000E+00  0.000E+00  0.000E+00  1.08955E+03  1.492E+00  1.793E+01  1.255E-01  1.497E+00
   1    3    3     1     3    5.6820E+01  4.8075E-01   5.6340E+01  0.000E+00  0.000E+00  0.000E+00  1.08390E+03  1.485E+00  1.786E+01  1.072E-01  1.495E+00
   1    3    4     1     4    5.6340E+01  4.4266E-01   5.5897E+01  0.000E+00  0.000E+00  0.000E+00  1.07889E+03  1.480E+00  1.781E+01  9.882E-02  1.493E+00
   1    4    5     2     1    5.3897E+01  3.8302E-01   5.3514E+01  0.000E+00  0.000E+00  0.000E+00  1.07384E+03  1.911E+00  1.200E+01  7.800E-02  1.637E+00
   1    5    6     2     2    5.3514E+01  2.9420E-01   5.3220E+01  0.000E+00  0.000E+00  0.000E+00  1.06841E+03  1.903E+00  1.200E+01  6.000E-02  1.634E+00
   1    6    6     2     3    5.3220E+01  2.9382E-01   5.2926E+01  0.000E+00  0.000E+00  0.000E+00  1.06369E+03  1.897E+00  1.200E+01  6.000E-02  1.632E+00
   1    7    6     2     4    5.2926E+01  2.9344E-01   5.2633E+01  0.000E+00  0.000E+00  0.000E+00  1.05897E+03  1.891E+00  1.200E+01  6.000E-02  1.630E+00
   1    8    6     2     5    5.2633E+01  2.9306E-01   5.2339E+01  0.000E+00  0.000E+00  0.000E+00  1.05424E+03  1.884E+00  1.200E+01  6.000E-02  1.628E+00
   1    3    5     3     1    2.0000E+00  2.8252E-01   1.7175E+00  0.000E+00  0.000E+00  0.000E+00  1.07555E+03  1.909E+00  9.636E+00  7.227E-02  1.955E+00
   1    3    6     3     2    1.7175E+00  2.4905E-01   1.4684E+00  0.000E+00  0.000E+00  0.000E+00  1.07264E+03  1.727E+00  8.909E+00  6.682E-02  1.864E+00
   1    3    7     3     3    1.4684E+00  1.9718E-01   1.2712E+00  0.000E+00  0.000E+00  0.000E+00  1.06987E+03  1.555E+00  8.218E+00  5.547E-02  1.777E+00
   1    4    8     3     4    1.2712E+00  2.2567E-01   1.0456E+00  0.000E+00  0.000E+00  0.000E+00  1.06682E+03  1.364E+00  7.455E+00  6.709E-02  1.682E+00
   1    5    8     3     5    1.0456E+00  1.5790E-01   8.8768E-01  0.000E+00  0.000E+00  0.000E+00  1.06362E+03  1.164E+00  6.655E+00  4.991E-02  1.582E+00
   1    6    8     3     6    8.8768E-01  5.5980E-02   8.3170E-01  0.000E+00  0.000E+00  0.000E+00  1.06158E+03  1.036E+00  6.145E+00  1.844E-02  1.518E+00
   1    5   10     4     1    1.0000E+01  9.0919E-02   9.9091E+00  0.000E+00  0.000E+00  0.000E+00  1.07836E+03  6.368E-01  1.000E+01  2.500E-02  1.212E+00
   1    5    9     4     2    9.9091E+00  1.8158E-01   9.7275E+00  0.000E+00  0.000E+00  0.000E+00  1.07154E+03  6.315E-01  1.000E+01  5.000E-02  1.211E+00
   1    6    8     4     3    9.7275E+00  1.2689E-01   9.6006E+00  0.000E+00  0.000E+00  0.000E+00  1.06381E+03  6.256E-01  1.000E+01  3.500E-02  1.209E+00
   1    6    8     5     1    1.0432E+01  2.2686E-01   1.0205E+01  0.000E+00  0.000E+00  0.000E+00  1.05868E+03  6.790E-01  1.542E+01  6.166E-02  1.226E+00
   1    7    7     5     2    1.0205E+01  2.7894E-01   9.9265E+00  0.000E+00  0.000E+00  0.000E+00  1.05417E+03  6.732E-01  1.519E+01  7.594E-02  1.224E+00
   1    8    7     5     3    9.9265E+00  1.9221E-01   9.7343E+00  0.000E+00  0.000E+00  0.000E+00  1.04992E+03  6.676E-01  1.497E+01  5.241E-02  1.223E+00
   1    8    6     5     4    9.7343E+00  1.3577E-01   9.5985E+00  0.000E+00  0.000E+00  0.000E+00  1.04691E+03  6.637E-01  1.482E+01  3.706E-02  1.221E+00
   1    9    6     6     1    6.1938E+01  3.0608E-01   6.1632E+01  0.000E+00  0.000E+00  0.000E+00  1.04483E+03  2.101E+00  1.200E+01  6.000E-02  1.700E+00
   1   10    7     6     2    6.1632E+01  3.0571E-01   6.1326E+01  0.000E+00  0.000E+00  0.000E+00  1.04028E+03  2.095E+00  1.200E+01  6.000E-02  1.698E+00
   1   11    7     6     3    6.1326E+01  3.0533E-01   6.1021E+01  0.000E+00  0.000E+00  0.000E+00  1.03573E+03  2.089E+00  1.200E+01  6.000E-02  1.696E+00
   1   12    7     6     4    6.1021E+01  3.0496E-01   6.0716E+01  0.000E+00  0.000E+00  0.000E+00  1.03117E+03  2.083E+00  1.200E+01  6.000E-02  1.694E+00
   1   13    7     6     5    6.0716E+01  2.2654E-02   6.0693E+01  0.000E+00  0.000E+00  0.000E+00  1.02799E+03  2.079E+00  1.200E+01  2.400E-02  3.146E-01
   1   14    9     7     1    1.5000E+02  1.3402E+00   1.4866E+02  0.000E+00  0.000E+00  0.000E+00  1.03987E+03  2.288E+00  5.529E+01  5.593E-01  7.987E-01
   1   13    8     7     2    1.4866E+02  1.8454E+00   1.4681E+02  0.000E+00  0.000E+00  0.000E+00  1.03478E+03  2.279E+00  5.526E+01  6.148E-01  1.001E+00
   1   13    7     7     3    1.4681E+02  1.4773E+00   1.4534E+02  0.000E+00  0.000E+00  0.000E+00  1.02969E+03  2.270E+00  5.522E+01  5.584E-01  8.818E-01
   1   13    6     8     1    2.0603E+02  1.0822E+00   2.0495E+02  0.000E+00  0.000E+00  0.000E+00  1.02504E+03  3.170E+00  4.596E+01  4.684E-01  7.702E-01
   1   13    5     8     2    2.0495E+02  2.7730E-01   2.0467E+02  0.000E+00  0.000E+00  0.000E+00  1.01879E+03  3.166E+00  4.590E+01  4.678E-01  1.976E-01
   1   13    4     8     3    2.0467E+02 -2.1859E+00   2.0686E+02  0.000E+00  0.000E+00  0.000E+00  1.01255E+03  3.171E+00  4.598E+01  4.686E+00 -1.555E-01
   1   13    3     8     4    2.0686E+02 -3.5079E+00   2.1036E+02  0.000E+00  0.000E+00  0.000E+00  1.00631E+03  3.188E+00  4.622E+01  4.710E+00 -2.482E-01
   1   13    2     8     5    2.1036E+02 -2.4700E+00   2.1283E+02  0.000E+00  0.000E+00  0.000E+00  1.00008E+03  3.205E+00  4.647E+01  4.735E+00 -1.739E-01
   1   13    1     8     6    2.1283E+02 -1.8854E+00   2.1472E+02  0.000E+00  0.000E+00  0.000E+00  9.95092E+02  3.217E+00  4.665E+01  2.852E+00 -2.204E-01
   1    8    6     9     1    0.0000E+00  0.0000E+00   0.0000E+00  0.000E+00  0.000E+00  0.000E+00  1.07875E+03  0.000E+00  4.000E+00  0.000E+00  1.000E+00
   1    8    5     9     2    0.0000E+00  0.0000E+00   0.0000E+00  0.000E+00  0.000E+00  0.000E+00  1.07825E+03  0.000E+00  4.000E+00  0.000E+00  1.000E+00





UNSATURATED ZONE PACKAGE VOLUMETRIC BUDGET FOR  TIME STEP    30 STRESS PERIOD   28
  ------------------------------------------------------------------------------



     CUMULATIVE VOLUMES      L**3       RATES FOR THIS TIME STEP      L**3/T
     ------------------                 ------------------------

           IN:                                      IN:
           ---                                      ---
        INFILTRATION =  1036500676.7426          INFILTRATION =           0.8475

          OUT:                                     OUT:
          ----                                     ----
              UZF ET =   866717205.1313                UZF ET =           0.7500
        UZF RECHARGE =       73224.0000          UZF RECHARGE =       0.0000E+00

            IN - OUT =   169710247.6113              IN - OUT =       9.7500E-02

          STORAGE:                                 STORAGE:
          --------                                 --------
      STORAGE CHANGE =   169830450.3499        STORAGE CHANGE =       9.7500E-02

 PERCENT DISCREPANCY IS DIFFERENCE BETWEEN IN-OUT MINUS CHANGE IN STORAGE
 DIVIDED BY THE AVERAGE OF IN AND OUT TIMES 100

 PERCENT DISCREPANCY =          -0.00     PERCENT DISCREPANCY =           0.00






1
  VOLUMETRIC BUDGET FOR AGRICULTURAL FIELDS AT  END OF TIME STEP   30, STRESS PERIOD  28
  ------------------------------------------------------------------------------

     CUMULATIVE VOLUMES      L**3       RATES FOR THIS TIME STEP      L**3/T
     ------------------                 ------------------------

           IN:                                      IN:
           ---                                      ---
           AG WELLS      =   363470336.0000             AG WELLS      =           0.0000
      DIVERSION SEGMENTS =   612812416.0000        DIVERSION SEGMENTS =           0.0000
           GW IRRIGATION =           0.0000             GW IRRIGATION =           0.0000
           SW IRRIGATION =           0.0000             SW IRRIGATION =           0.0000
        SYSTEM LOSSES GW =           0.0000          SYSTEM LOSSES GW =           0.0000
        SYSTEM LOSSES SW =           0.0000          SYSTEM LOSSES SW =           0.0000

                TOTAL IN =   976282752.0000                  TOTAL IN =           0.0000

          OUT:                                     OUT:
          ----                                     ----
           AG WELLS      =           0.0000             AG WELLS      =           0.0000
      DIVERSION SEGMENTS =           0.0000        DIVERSION SEGMENTS =           0.0000
           GW IRRIGATION =   363470336.0000             GW IRRIGATION =           0.0000
           SW IRRIGATION =   612825280.0000             SW IRRIGATION =           0.0000
        SYSTEM LOSSES GW =           0.0000          SYSTEM LOSSES GW =           0.0000
        SYSTEM LOSSES SW =           0.0000          SYSTEM LOSSES SW =           0.0000

               TOTAL OUT =   976295616.0000                 TOTAL OUT =           0.0000

                IN - OUT =      -12864.0000                  IN - OUT =           0.0000

     PERCENT DISCREPANCY =          -0.00         PERCENT DISCREPANCY =           0.00



1
  VOLUMETRIC BUDGET FOR ENTIRE MODEL AT END OF TIME STEP   30, STRESS PERIOD  28
  ------------------------------------------------------------------------------

     CUMULATIVE VOLUMES      L**3       RATES FOR THIS TIME STEP      L**3/T
     ------------------                 ------------------------

           IN:                                      IN:
           ---                                      ---
             STORAGE     =   605877632.0000               STORAGE     =           2.1248
       CONSTANT HEAD     =           0.0000         CONSTANT HEAD     =           0.0000
     HEAD DEP BOUNDS     =    20320268.0000       HEAD DEP BOUNDS     =           0.2861
      STREAM LEAKAGE     =   846258624.0000        STREAM LEAKAGE     =          13.0773
        UZF RECHARGE     =       73223.9531          UZF RECHARGE     =           0.0000
               GW ET     =           0.0000                 GW ET     =           0.0000
     SURFACE LEAKAGE     =           0.0000       SURFACE LEAKAGE     =           0.0000
           AG WELLS      =           0.0000             AG WELLS      =           0.0000

                TOTAL IN =  1472529664.0000                  TOTAL IN =          15.4882

          OUT:                                     OUT:
          ----                                     ----
             STORAGE     =   321808896.0000               STORAGE     =           5.1442
       CONSTANT HEAD     =           0.0000         CONSTANT HEAD     =           0.0000
     HEAD DEP BOUNDS     =    20659318.0000       HEAD DEP BOUNDS     =           0.2946
      STREAM LEAKAGE     =   764378176.0000        STREAM LEAKAGE     =          10.0492
        UZF RECHARGE     =           0.0000          UZF RECHARGE     =           0.0000
               GW ET     =     2221692.0000                 GW ET     =       1.0539E-03
     SURFACE LEAKAGE     =           0.0000       SURFACE LEAKAGE     =           0.0000
           AG WELLS      =   363470336.0000             AG WELLS      =           0.0000

               TOTAL OUT =  1472538496.0000                 TOTAL OUT =          15.4891

                IN - OUT =       -8832.0000                  IN - OUT =      -8.6117E-04

     PERCENT DISCREPANCY =          -0.00         PERCENT DISCREPANCY =          -0.01






         TIME SUMMARY AT END OF TIME STEP   30 IN STRESS PERIOD   28
                    SECONDS     MINUTES      HOURS       DAYS        YEARS
                    -----------------------------------------------------------
   TIME STEP LENGTH  87667.      1461.1      24.352      1.0147     2.77799E-03
 STRESS PERIOD TIME 2.63000E+06  43833.      730.56      30.440     8.33397E-02
         TOTAL TIME 7.10967E+07 1.18494E+06  19749.      822.88      2.2529    
1
1
                            STRESS PERIOD NO.   29, LENGTH =   2630000.    
                            -----------------------------------------------

                              NUMBER OF TIME STEPS =    30

                               MULTIPLIER FOR DELT =     1.000

                            INITIAL TIME STEP SIZE =   87666.66    

 REUSING NON-PARAMETER GHB CELLS FROM LAST STRESS PERIOD

      2 GHB CELLS

 REUSING STREAM SEGMENT DATA FROM LAST STRESS PERIOD



            AREAL INFILTRATION RATE
 READING ON UNIT   19 WITH FORMAT: (FREE)              

            1           2           3           4           5           6           7           8           9          10
 ........................................................................................................................
   1   1.0000E-10  2.0000E-10   0.000       0.000       0.000       0.000       0.000       0.000       0.000       0.000    
   2   2.0000E-10  1.0000E-10  2.0000E-10   0.000       0.000      8.0000E-10  8.0000E-10  5.0000E-10   0.000       0.000    
   3    0.000      5.0000E-10  1.0000E-10  1.0000E-10  8.0000E-10  8.0000E-10  5.0000E-10  5.0000E-10   0.000       0.000    
   4   8.0000E-10  5.0000E-10  1.0000E-10  1.0000E-10  1.0000E-10  1.0000E-10  1.0000E-10  1.0000E-10  2.0000E-10   0.000    
   5   8.0000E-10  5.0000E-10  1.0000E-10  1.0000E-10  1.0000E-10  1.0000E-10  1.0000E-10  1.0000E-10  1.0000E-10  1.0000E-10
   6   8.0000E-10  5.0000E-10  5.0000E-10  2.0000E-10  2.0000E-10  1.0000E-10  1.0000E-10  1.0000E-10  1.0000E-10  5.0000E-10
   7   8.0000E-10  5.0000E-10  5.0000E-10  2.0000E-10  2.0000E-10  1.0000E-10  1.0000E-10  2.0000E-10  2.0000E-10   0.000    
   8    0.000      5.0000E-10  5.0000E-10  2.0000E-10  2.0000E-10  1.0000E-10  1.0000E-10  2.0000E-10  5.0000E-10   0.000    
   9    0.000      5.0000E-10  5.0000E-10  2.0000E-10  2.0000E-10  1.0000E-10  1.0000E-10  2.0000E-10  5.0000E-10   0.000    
  10    0.000      5.0000E-10  5.0000E-10  2.0000E-10  2.0000E-10  1.0000E-10  1.0000E-10  2.0000E-10  5.0000E-10  8.0000E-10
  11    0.000      1.0000E-10  1.0000E-10  1.0000E-10  1.0000E-10  1.0000E-10  1.0000E-10  2.0000E-10  5.0000E-10   0.000    
  12   1.0000E-10  1.0000E-10  1.0000E-10  1.0000E-10  1.0000E-10  1.0000E-10  1.0000E-10  1.0000E-10  2.0000E-10   0.000    
  13   1.0000E-10  1.0000E-10  2.0000E-10  2.0000E-10  2.0000E-10  2.0000E-10  2.0000E-10  1.0000E-10  1.0000E-10   0.000    
  14    0.000      2.0000E-10  5.0000E-10  5.0000E-10  5.0000E-10  5.0000E-10  5.0000E-10  2.0000E-10  1.0000E-10   0.000    
  15    0.000       0.000      8.0000E-10  8.0000E-10  8.0000E-10  8.0000E-10   0.000       0.000       0.000       0.000    

                  ET RATE =  2.500000E-08

 USING ET EXTINCTION DEPTH FROM PREVIOUS STRESS PERIOD. CURRENT PERIOD IS:      29

 USING EXTINCTION WATER CONTENT FROM PREVIOUS STRESS PERIOD. CURRENT PERIOD IS:      29

 USING AIR ENTRY PRESSURE FROM PREVIOUS STRESS PERIOD. CURRENT PERIOD IS:      29

 USING ROOT PRESSURE HEAD FROM PREVIOUS STRESS PERIOD. CURRENT PERIOD IS:      29

 USING ROOT ACTIVITY FROM PREVIOUS STRESS PERIOD. CURRENT PERIOD IS:      29

 PROCESSING AG STRESS PERIOD DATA

 READING AG STRESS PERIOD DATA

 READING IRRIGATION SEGMENT

 READING IRRIGATION WELL

 READING SUPPLEMENTAL WELL

 END PROCESSING AG STRESS PERIOD DATA OPTIONS
 
 SOLVING FOR HEAD 
                                                   Max.-Head-Change                         Max.-Flux-Residual
  Residual-Control   Outer-Iter.   Inner-Iter.     Column Row Layer    Maximum-Head-Change  Column Row Layer    Maximum-Flux-Residual          L2-NORM 
          0                 1           2             4    7     1       0.7721702868E-02       4    7    1         0.4044798012E+00      0.1099355140E+01
          0                 2           2             4    7     1      -0.7511122448E-03       4    7    1        -0.4044805533E-01      0.1099247686E+00
          0                 3           1             4    7     1       0.5114794984E-04       4    7    1         0.2831364382E-02      0.7693708421E-02

    ------------------------------------------------
       NWT REQUIRED            3 OUTER ITERATIONS 
       AND A TOTAL OF          5 INNER ITERATIONS.
    ------------------------------------------------

 NO OUTPUT CONTROL FOR STRESS PERIOD   29   TIME STEP    1
 
 SOLVING FOR HEAD 
                                                   Max.-Head-Change                         Max.-Flux-Residual
  Residual-Control   Outer-Iter.   Inner-Iter.     Column Row Layer    Maximum-Head-Change  Column Row Layer    Maximum-Flux-Residual          L2-NORM 
          0                 1           2             4   13     1      -0.1073954506E-01       4   13    1        -0.6285801942E+00      0.1490823604E+01
          0                 2           2             4   13     1       0.1035335735E-02       4   13    1         0.6230466217E-01      0.1471213234E+00
          0                 3           1             4   13     1      -0.6962893124E-04       4   13    1        -0.4308079190E-02      0.1011736799E-01

    ------------------------------------------------
       NWT REQUIRED            3 OUTER ITERATIONS 
       AND A TOTAL OF          5 INNER ITERATIONS.
    ------------------------------------------------

 NO OUTPUT CONTROL FOR STRESS PERIOD   29   TIME STEP    2
 
 SOLVING FOR HEAD 
                                                   Max.-Head-Change                         Max.-Flux-Residual
  Residual-Control   Outer-Iter.   Inner-Iter.     Column Row Layer    Maximum-Head-Change  Column Row Layer    Maximum-Flux-Residual          L2-NORM 
          0                 1           2             4   13     1      -0.1188152704E-01       4   13    1        -0.6944122738E+00      0.1589475598E+01
          0                 2           2             3   13     1       0.1065990372E-02       3   13    1         0.6328274890E-01      0.1523026482E+00
          0                 3           1             3   13     1      -0.7044827067E-04       3   13    1        -0.4299396217E-02      0.1045923480E-01

    ------------------------------------------------
       NWT REQUIRED            3 OUTER ITERATIONS 
       AND A TOTAL OF          5 INNER ITERATIONS.
    ------------------------------------------------

 NO OUTPUT CONTROL FOR STRESS PERIOD   29   TIME STEP    3
 
 SOLVING FOR HEAD 
                                                   Max.-Head-Change                         Max.-Flux-Residual
  Residual-Control   Outer-Iter.   Inner-Iter.     Column Row Layer    Maximum-Head-Change  Column Row Layer    Maximum-Flux-Residual          L2-NORM 
          0                 1           2             4   13     1      -0.1091990701E-01       4   13    1        -0.6257613937E+00      0.1508703591E+01
          0                 2           2             4   13     1       0.1052653650E-02       4   13    1         0.6202059316E-01      0.1488040361E+00
          0                 3           1             4   13     1      -0.7078149599E-04       4   13    1        -0.4287645558E-02      0.1022458557E-01

    ------------------------------------------------
       NWT REQUIRED            3 OUTER ITERATIONS 
       AND A TOTAL OF          5 INNER ITERATIONS.
    ------------------------------------------------

 NO OUTPUT CONTROL FOR STRESS PERIOD   29   TIME STEP    4
 
 SOLVING FOR HEAD 
                                                   Max.-Head-Change                         Max.-Flux-Residual
  Residual-Control   Outer-Iter.   Inner-Iter.     Column Row Layer    Maximum-Head-Change  Column Row Layer    Maximum-Flux-Residual          L2-NORM 
          0                 1           2             4   13     1      -0.9907439141E-02       4   13    1        -0.5675246272E+00      0.1439108241E+01
          0                 2           2             4   13     1       0.9548290681E-03       4   13    1         0.5623512127E-01      0.1420767411E+00
          0                 3           1             4   13     1      -0.6419512557E-04       4   13    1        -0.3887150969E-02      0.9775330667E-02

    ------------------------------------------------
       NWT REQUIRED            3 OUTER ITERATIONS 
       AND A TOTAL OF          5 INNER ITERATIONS.
    ------------------------------------------------

 NO OUTPUT CONTROL FOR STRESS PERIOD   29   TIME STEP    5
 
 SOLVING FOR HEAD 
                                                   Max.-Head-Change                         Max.-Flux-Residual
  Residual-Control   Outer-Iter.   Inner-Iter.     Column Row Layer    Maximum-Head-Change  Column Row Layer    Maximum-Flux-Residual          L2-NORM 
          0                 1           2             2   13     1      -0.9056654190E-02       4   13    1        -0.5149167320E+00      0.1377794363E+01
          0                 2           2             4   13     1       0.8665636349E-03       4   13    1         0.5101568129E-01      0.1361588524E+00
          0                 3           1             4   13     1      -0.5826077356E-04       4   13    1        -0.3526338528E-02      0.9381949870E-02

    ------------------------------------------------
       NWT REQUIRED            3 OUTER ITERATIONS 
       AND A TOTAL OF          5 INNER ITERATIONS.
    ------------------------------------------------

 NO OUTPUT CONTROL FOR STRESS PERIOD   29   TIME STEP    6
 
 SOLVING FOR HEAD 
                                                   Max.-Head-Change                         Max.-Flux-Residual
  Residual-Control   Outer-Iter.   Inner-Iter.     Column Row Layer    Maximum-Head-Change  Column Row Layer    Maximum-Flux-Residual          L2-NORM 
          0                 1           2             2   13     1      -0.8385383962E-02       2   13    1        -0.4717506631E+00      0.1323778087E+01
          0                 2           2             4   13     1       0.7866419925E-03       4   13    1         0.4629020289E-01      0.1309461089E+00
          0                 3           1             4   13     1      -0.5269061877E-04       4   13    1        -0.3187641001E-02      0.9030706667E-02

    ------------------------------------------------
       NWT REQUIRED            3 OUTER ITERATIONS 
       AND A TOTAL OF          5 INNER ITERATIONS.
    ------------------------------------------------

 NO OUTPUT CONTROL FOR STRESS PERIOD   29   TIME STEP    7
 
 SOLVING FOR HEAD 
                                                   Max.-Head-Change                         Max.-Flux-Residual
  Residual-Control   Outer-Iter.   Inner-Iter.     Column Row Layer    Maximum-Head-Change  Column Row Layer    Maximum-Flux-Residual          L2-NORM 
          0                 1           2             2   13     1      -0.7763518473E-02       2   13    1        -0.4367700732E+00      0.1276180605E+01
          0                 2           2             2   13     1       0.7252387553E-03       4   13    1         0.4203885258E-01      0.1259290863E+00
          0                 3           1             4    7     1       0.4834455458E-04       4   13    1        -0.2903532712E-02      0.8700109616E-02

    ------------------------------------------------
       NWT REQUIRED            3 OUTER ITERATIONS 
       AND A TOTAL OF          5 INNER ITERATIONS.
    ------------------------------------------------

 NO OUTPUT CONTROL FOR STRESS PERIOD   29   TIME STEP    8
 
 SOLVING FOR HEAD 
                                                   Max.-Head-Change                         Max.-Flux-Residual
  Residual-Control   Outer-Iter.   Inner-Iter.     Column Row Layer    Maximum-Head-Change  Column Row Layer    Maximum-Flux-Residual          L2-NORM 
          0                 1           2             4    7     1       0.7240297327E-02       2   13    1        -0.4043648260E+00      0.1234380509E+01
          0                 2           2             4    7     1      -0.7042844622E-03       2   13    1         0.3883992910E-01      0.1223290382E+00
          0                 3           1             4    7     1       0.4795915121E-04       4    7    1         0.2654521480E-02      0.8461038617E-02

    ------------------------------------------------
       NWT REQUIRED            3 OUTER ITERATIONS 
       AND A TOTAL OF          5 INNER ITERATIONS.
    ------------------------------------------------

 NO OUTPUT CONTROL FOR STRESS PERIOD   29   TIME STEP    9
 
 SOLVING FOR HEAD 
                                                   Max.-Head-Change                         Max.-Flux-Residual
  Residual-Control   Outer-Iter.   Inner-Iter.     Column Row Layer    Maximum-Head-Change  Column Row Layer    Maximum-Flux-Residual          L2-NORM 
          0                 1           2             4    7     1       0.7182824359E-02       4    7    1         0.3761998832E+00      0.1198990655E+01
          0                 2           2             4    7     1      -0.6986938922E-03       4    7    1        -0.3762005221E-01      0.1189185680E+00
          0                 3           1             4    7     1       0.4757845468E-04       4    7    1         0.2633404176E-02      0.8233455444E-02

    ------------------------------------------------
       NWT REQUIRED            3 OUTER ITERATIONS 
       AND A TOTAL OF          5 INNER ITERATIONS.
    ------------------------------------------------

 NO OUTPUT CONTROL FOR STRESS PERIOD   29   TIME STEP   10
 
 SOLVING FOR HEAD 
                                                   Max.-Head-Change                         Max.-Flux-Residual
  Residual-Control   Outer-Iter.   Inner-Iter.     Column Row Layer    Maximum-Head-Change  Column Row Layer    Maximum-Flux-Residual          L2-NORM 
          0                 1           2             4    7     1       0.7125916473E-02       4    7    1         0.3732125970E+00      0.1167394445E+01
          0                 2           2             4    7     1      -0.6931582895E-03       4    7    1        -0.3732132244E-01      0.1158749998E+00
          0                 3           1             4    7     1       0.4720150090E-04       4    7    1         0.2612493098E-02      0.8031615746E-02

    ------------------------------------------------
       NWT REQUIRED            3 OUTER ITERATIONS 
       AND A TOTAL OF          5 INNER ITERATIONS.
    ------------------------------------------------

 NO OUTPUT CONTROL FOR STRESS PERIOD   29   TIME STEP   11
 
 SOLVING FOR HEAD 
                                                   Max.-Head-Change                         Max.-Flux-Residual
  Residual-Control   Outer-Iter.   Inner-Iter.     Column Row Layer    Maximum-Head-Change  Column Row Layer    Maximum-Flux-Residual          L2-NORM 
          0                 1           2             4    7     1       0.7069709564E-02       4    7    1         0.3702619865E+00      0.1139128461E+01
          0                 2           2             4    7     1      -0.6876908730E-03       4    7    1        -0.3702626027E-01      0.1131508897E+00
          0                 3           1             4    7     1       0.4682919029E-04       4    7    1         0.2591838737E-02      0.7849815109E-02

    ------------------------------------------------
       NWT REQUIRED            3 OUTER ITERATIONS 
       AND A TOTAL OF          5 INNER ITERATIONS.
    ------------------------------------------------

 NO OUTPUT CONTROL FOR STRESS PERIOD   29   TIME STEP   12
 
 SOLVING FOR HEAD 
                                                   Max.-Head-Change                         Max.-Flux-Residual
  Residual-Control   Outer-Iter.   Inner-Iter.     Column Row Layer    Maximum-Head-Change  Column Row Layer    Maximum-Flux-Residual          L2-NORM 
          0                 1           2             4    7     1       0.7013919075E-02       4    7    1         0.3673329668E+00      0.1113762686E+01
          0                 2           2             4    7     1      -0.6822639636E-03       4    7    1        -0.3673335718E-01      0.1107063305E+00
          0                 3           1             4    7     1       0.4645963847E-04       4    7    1         0.2571335552E-02      0.7688073592E-02

    ------------------------------------------------
       NWT REQUIRED            3 OUTER ITERATIONS 
       AND A TOTAL OF          5 INNER ITERATIONS.
    ------------------------------------------------

 NO OUTPUT CONTROL FOR STRESS PERIOD   29   TIME STEP   13
 
 SOLVING FOR HEAD 
                                                   Max.-Head-Change                         Max.-Flux-Residual
  Residual-Control   Outer-Iter.   Inner-Iter.     Column Row Layer    Maximum-Head-Change  Column Row Layer    Maximum-Flux-Residual          L2-NORM 
          0                 1           2             4    7     1       0.6958685186E-02       4    7    1         0.3644329148E+00      0.1090952132E+01
          0                 2           2             4    7     1      -0.6768911960E-03       4    7    1        -0.3644335089E-01      0.1085056284E+00
          0                 3           1             4    7     1       0.4609377295E-04       4    7    1         0.2551035096E-02      0.7541022600E-02

    ------------------------------------------------
       NWT REQUIRED            3 OUTER ITERATIONS 
       AND A TOTAL OF          5 INNER ITERATIONS.
    ------------------------------------------------

 NO OUTPUT CONTROL FOR STRESS PERIOD   29   TIME STEP   14
 
 SOLVING FOR HEAD 
                                                   Max.-Head-Change                         Max.-Flux-Residual
  Residual-Control   Outer-Iter.   Inner-Iter.     Column Row Layer    Maximum-Head-Change  Column Row Layer    Maximum-Flux-Residual          L2-NORM 
          0                 1           2             4    7     1       0.6904139978E-02       4    7    1         0.3615690991E+00      0.1070357279E+01
          0                 2           2             4    7     1      -0.6715854189E-03       4    7    1        -0.3615696827E-01      0.1065141392E+00
          0                 3           1             4    7     1       0.4573246931E-04       4    7    1         0.2530988316E-02      0.7408351644E-02

    ------------------------------------------------
       NWT REQUIRED            3 OUTER ITERATIONS 
       AND A TOTAL OF          5 INNER ITERATIONS.
    ------------------------------------------------

 NO OUTPUT CONTROL FOR STRESS PERIOD   29   TIME STEP   15
 
 SOLVING FOR HEAD 
                                                   Max.-Head-Change                         Max.-Flux-Residual
  Residual-Control   Outer-Iter.   Inner-Iter.     Column Row Layer    Maximum-Head-Change  Column Row Layer    Maximum-Flux-Residual          L2-NORM 
          0                 1           2             4    7     1       0.6850138352E-02       4    7    1         0.3587336134E+00      0.1051713256E+01
          0                 2           2             4    7     1      -0.6663325178E-03       4    7    1        -0.3587341864E-01      0.1047154681E+00
          0                 3           1             4    7     1       0.4537476701E-04       4    7    1         0.2511139854E-02      0.7288063329E-02

    ------------------------------------------------
       NWT REQUIRED            3 OUTER ITERATIONS 
       AND A TOTAL OF          5 INNER ITERATIONS.
    ------------------------------------------------

 NO OUTPUT CONTROL FOR STRESS PERIOD   29   TIME STEP   16
 
 SOLVING FOR HEAD 
                                                   Max.-Head-Change                         Max.-Flux-Residual
  Residual-Control   Outer-Iter.   Inner-Iter.     Column Row Layer    Maximum-Head-Change  Column Row Layer    Maximum-Flux-Residual          L2-NORM 
          0                 1           2             4    7     1       0.6796673233E-02       4    7    1         0.3559263116E+00      0.1034753800E+01
          0                 2           2             4    7     1      -0.6611318039E-03       4    7    1        -0.3559268742E-01      0.1030750090E+00
          0                 3           1             4    7     1       0.4502061752E-04       4    7    1         0.2491488659E-02      0.7182148036E-02

    ------------------------------------------------
       NWT REQUIRED            3 OUTER ITERATIONS 
       AND A TOTAL OF          5 INNER ITERATIONS.
    ------------------------------------------------

 NO OUTPUT CONTROL FOR STRESS PERIOD   29   TIME STEP   17
 
 SOLVING FOR HEAD 
                                                   Max.-Head-Change                         Max.-Flux-Residual
  Residual-Control   Outer-Iter.   Inner-Iter.     Column Row Layer    Maximum-Head-Change  Column Row Layer    Maximum-Flux-Residual          L2-NORM 
          0                 1           2             4    7     1       0.6743746170E-02       4    7    1         0.3531468269E+00      0.1019269626E+01
          0                 2           2             4    7     1      -0.6559834291E-03       4    7    1        -0.3531473795E-01      0.1015753556E+00
          0                 3           1             4    7     1       0.4467003234E-04       4    7    1         0.2472032196E-02      0.7078139571E-02

    ------------------------------------------------
       NWT REQUIRED            3 OUTER ITERATIONS 
       AND A TOTAL OF          5 INNER ITERATIONS.
    ------------------------------------------------

 NO OUTPUT CONTROL FOR STRESS PERIOD   29   TIME STEP   18
 
 SOLVING FOR HEAD 
                                                   Max.-Head-Change                         Max.-Flux-Residual
  Residual-Control   Outer-Iter.   Inner-Iter.     Column Row Layer    Maximum-Head-Change  Column Row Layer    Maximum-Flux-Residual          L2-NORM 
          0                 1           2             4    7     1       0.6691483238E-02       4    7    1         0.3504026176E+00      0.1005077616E+01
          0                 2           2             4    7     1      -0.6508996563E-03       4    7    1        -0.3504031602E-01      0.1001986366E+00
          0                 3           1             4    7     1       0.4432384656E-04       4    7    1         0.2452822673E-02      0.6984977071E-02

    ------------------------------------------------
       NWT REQUIRED            3 OUTER ITERATIONS 
       AND A TOTAL OF          5 INNER ITERATIONS.
    ------------------------------------------------

 NO OUTPUT CONTROL FOR STRESS PERIOD   29   TIME STEP   19
 
 SOLVING FOR HEAD 
                                                   Max.-Head-Change                         Max.-Flux-Residual
  Residual-Control   Outer-Iter.   Inner-Iter.     Column Row Layer    Maximum-Head-Change  Column Row Layer    Maximum-Flux-Residual          L2-NORM 
          0                 1           2             4    7     1       0.6639604839E-02       4    7    1         0.3476780868E+00      0.9919983216E+00
          0                 2           2             4    7     1      -0.6458532882E-03       4    7    1        -0.3476786197E-01      0.9892870978E-01
          0                 3           1             4    7     1       0.4398020797E-04       4    7    1         0.2433750889E-02      0.6900242974E-02

    ------------------------------------------------
       NWT REQUIRED            3 OUTER ITERATIONS 
       AND A TOTAL OF          5 INNER ITERATIONS.
    ------------------------------------------------

 NO OUTPUT CONTROL FOR STRESS PERIOD   29   TIME STEP   20
 
 SOLVING FOR HEAD 
                                                   Max.-Head-Change                         Max.-Flux-Residual
  Residual-Control   Outer-Iter.   Inner-Iter.     Column Row Layer    Maximum-Head-Change  Column Row Layer    Maximum-Flux-Residual          L2-NORM 
          0                 1           2             4    7     1       0.6588382319E-02       4    7    1         0.3449882493E+00      0.9799030960E+00
          0                 2           2             4    7     1      -0.6408707197E-03       4    7    1        -0.3449887727E-01      0.9775162784E-01
          0                 3           1             4    7     1       0.4364091353E-04       4    7    1         0.2414921961E-02      0.6820544724E-02

    ------------------------------------------------
       NWT REQUIRED            3 OUTER ITERATIONS 
       AND A TOTAL OF          5 INNER ITERATIONS.
    ------------------------------------------------

 NO OUTPUT CONTROL FOR STRESS PERIOD   29   TIME STEP   21
 
 SOLVING FOR HEAD 
                                                   Max.-Head-Change                         Max.-Flux-Residual
  Residual-Control   Outer-Iter.   Inner-Iter.     Column Row Layer    Maximum-Head-Change  Column Row Layer    Maximum-Flux-Residual          L2-NORM 
          0                 1           2             4    7     1       0.6537674901E-02       4    7    1         0.3423250403E+00      0.9686693335E+00
          0                 2           2             4    7     1      -0.6359382563E-03       4    7    1        -0.3423255542E-01      0.9665654008E-01
          0                 3           1             4    7     1       0.4330503096E-04       4    7    1         0.2396279424E-02      0.6746719090E-02

    ------------------------------------------------
       NWT REQUIRED            3 OUTER ITERATIONS 
       AND A TOTAL OF          5 INNER ITERATIONS.
    ------------------------------------------------

 NO OUTPUT CONTROL FOR STRESS PERIOD   29   TIME STEP   22
 
 SOLVING FOR HEAD 
                                                   Max.-Head-Change                         Max.-Flux-Residual
  Residual-Control   Outer-Iter.   Inner-Iter.     Column Row Layer    Maximum-Head-Change  Column Row Layer    Maximum-Flux-Residual          L2-NORM 
          0                 1           2             4    7     1       0.6487610760E-02       4    7    1         0.3396959170E+00      0.9581889070E+00
          0                 2           2             4    7     1      -0.6310683673E-03       4    7    1        -0.3396964218E-01      0.9563388425E-01
          0                 3           1             4    7     1       0.4297340982E-04       4    7    1         0.2377875504E-02      0.6677399101E-02

    ------------------------------------------------
       NWT REQUIRED            3 OUTER ITERATIONS 
       AND A TOTAL OF          5 INNER ITERATIONS.
    ------------------------------------------------

 NO OUTPUT CONTROL FOR STRESS PERIOD   29   TIME STEP   23
 
 SOLVING FOR HEAD 
                                                   Max.-Head-Change                         Max.-Flux-Residual
  Residual-Control   Outer-Iter.   Inner-Iter.     Column Row Layer    Maximum-Head-Change  Column Row Layer    Maximum-Flux-Residual          L2-NORM 
          0                 1           2             4    7     1       0.6438046021E-02       4    7    1         0.3370927685E+00      0.9483586796E+00
          0                 2           2             4    7     1      -0.6262470564E-03       4    7    1        -0.3370932644E-01      0.9467261337E-01
          0                 3           1             4    7     1       0.4264509677E-04       4    7    1         0.2359653394E-02      0.6607514924E-02

    ------------------------------------------------
       NWT REQUIRED            3 OUTER ITERATIONS 
       AND A TOTAL OF          5 INNER ITERATIONS.
    ------------------------------------------------

 NO OUTPUT CONTROL FOR STRESS PERIOD   29   TIME STEP   24
 
 SOLVING FOR HEAD 
                                                   Max.-Head-Change                         Max.-Flux-Residual
  Residual-Control   Outer-Iter.   Inner-Iter.     Column Row Layer    Maximum-Head-Change  Column Row Layer    Maximum-Flux-Residual          L2-NORM 
          0                 1           2             4    7     1       0.6388833811E-02       4    7    1         0.3345081348E+00      0.9390996661E+00
          0                 2           2             4    7     1      -0.6214600371E-03       4    7    1        -0.3345086219E-01      0.9376583700E-01
          0                 3           1             4    7     1       0.4231911875E-04       4    7    1         0.2341560901E-02      0.6550314291E-02

    ------------------------------------------------
       NWT REQUIRED            3 OUTER ITERATIONS 
       AND A TOTAL OF          5 INNER ITERATIONS.
    ------------------------------------------------

 NO OUTPUT CONTROL FOR STRESS PERIOD   29   TIME STEP   25
 
 SOLVING FOR HEAD 
                                                   Max.-Head-Change                         Max.-Flux-Residual
  Residual-Control   Outer-Iter.   Inner-Iter.     Column Row Layer    Maximum-Head-Change  Column Row Layer    Maximum-Flux-Residual          L2-NORM 
          0                 1           2             4    7     1       0.6340387905E-02       4    7    1         0.3319639146E+00      0.9303597012E+00
          0                 2           2             4    7     1      -0.6167475590E-03       4    7    1        -0.3319643931E-01      0.9290909810E-01
          0                 3           1             4    7     1       0.4199821642E-04       4    7    1         0.2323751303E-02      0.6491634749E-02

    ------------------------------------------------
       NWT REQUIRED            3 OUTER ITERATIONS 
       AND A TOTAL OF          5 INNER ITERATIONS.
    ------------------------------------------------

 NO OUTPUT CONTROL FOR STRESS PERIOD   29   TIME STEP   26
 
 SOLVING FOR HEAD 
                                                   Max.-Head-Change                         Max.-Flux-Residual
  Residual-Control   Outer-Iter.   Inner-Iter.     Column Row Layer    Maximum-Head-Change  Column Row Layer    Maximum-Flux-Residual          L2-NORM 
          0                 1           2             4    7     1       0.6292280911E-02       4    7    1         0.3294372907E+00      0.9220524549E+00
          0                 2           2             4    7     1      -0.6120680475E-03       4    7    1        -0.3294377607E-01      0.9209358762E-01
          0                 3           1             4    7     1       0.4167955917E-04       4    7    1         0.2306064871E-02      0.6436550192E-02

    ------------------------------------------------
       NWT REQUIRED            3 OUTER ITERATIONS 
       AND A TOTAL OF          5 INNER ITERATIONS.
    ------------------------------------------------

 NO OUTPUT CONTROL FOR STRESS PERIOD   29   TIME STEP   27
 
 SOLVING FOR HEAD 
                                                   Max.-Head-Change                         Max.-Flux-Residual
  Residual-Control   Outer-Iter.   Inner-Iter.     Column Row Layer    Maximum-Head-Change  Column Row Layer    Maximum-Flux-Residual          L2-NORM 
          0                 1           2             4    7     1       0.6244789023E-02       4    7    1         0.3269429962E+00      0.9141485138E+00
          0                 2           2             4    7     1      -0.6074521537E-03       4    7    1        -0.3269434580E-01      0.9131936517E-01
          0                 3           1             4    7     1       0.4136523399E-04       4    7    1         0.2288604759E-02      0.6382424216E-02

    ------------------------------------------------
       NWT REQUIRED            3 OUTER ITERATIONS 
       AND A TOTAL OF          5 INNER ITERATIONS.
    ------------------------------------------------

 NO OUTPUT CONTROL FOR STRESS PERIOD   29   TIME STEP   28
 
 SOLVING FOR HEAD 
                                                   Max.-Head-Change                         Max.-Flux-Residual
  Residual-Control   Outer-Iter.   Inner-Iter.     Column Row Layer    Maximum-Head-Change  Column Row Layer    Maximum-Flux-Residual          L2-NORM 
          0                 1           2             4    7     1       0.6197747773E-02       4    7    1         0.3244730142E+00      0.9065948086E+00
          0                 2           2             4    7     1      -0.6028725272E-03       4    7    1        -0.3244734681E-01      0.9057152900E-01
          0                 3           1             4    7     1       0.4105337837E-04       4    7    1         0.2271314831E-02      0.6331692934E-02

    ------------------------------------------------
       NWT REQUIRED            3 OUTER ITERATIONS 
       AND A TOTAL OF          5 INNER ITERATIONS.
    ------------------------------------------------

 NO OUTPUT CONTROL FOR STRESS PERIOD   29   TIME STEP   29
 
 SOLVING FOR HEAD 
                                                   Max.-Head-Change                         Max.-Flux-Residual
  Residual-Control   Outer-Iter.   Inner-Iter.     Column Row Layer    Maximum-Head-Change  Column Row Layer    Maximum-Flux-Residual          L2-NORM 
          0                 1           2             4    7     1       0.6151294332E-02       4    7    1         0.3220267993E+00      0.1004447411E+01
          0                 2           2             4    7     1      -0.5983538612E-03       4    7    1        -0.3220272445E-01      0.9987187482E-01
          0                 3           1             4    7     1       0.4074567401E-04       4    7    1         0.2254191268E-02      0.6937966773E-02

    ------------------------------------------------
       NWT REQUIRED            3 OUTER ITERATIONS 
       AND A TOTAL OF          5 INNER ITERATIONS.
    ------------------------------------------------

 NO OUTPUT CONTROL FOR STRESS PERIOD   29   TIME STEP   30



 STREAM LISTING     PERIOD     29   STEP       30

 LAYER ROW COL. STREAM  RCH.  FLOW INTO     FLOW TO   FLOW OUT OF   OVRLND.     DIRECT     STREAM       STREAM     STREAM     STREAM   STREAMBED  STREAMBED
                SEG.NO.  NO.  STRM. RCH.    AQUIFER    STRM. RCH.    RUNOFF     PRECIP       ET          HEAD       DEPTH      WIDTH   CONDCTNC.   GRADIENT

   1    1    1     1     1    3.7161E+01  2.9408E-01   3.6867E+01  0.000E+00  0.000E+00  0.000E+00  1.09436E+03  1.310E+00  1.516E+01  6.824E-02  1.437E+00
   1    2    2     1     2    3.6867E+01  4.5538E-01   3.6412E+01  0.000E+00  0.000E+00  0.000E+00  1.08937E+03  1.307E+00  1.511E+01  1.057E-01  1.436E+00
   1    3    3     1     3    3.6412E+01  3.8831E-01   3.6024E+01  0.000E+00  0.000E+00  0.000E+00  1.08372E+03  1.303E+00  1.504E+01  9.023E-02  1.434E+00
   1    3    4     1     4    3.6024E+01  3.5753E-01   3.5666E+01  0.000E+00  0.000E+00  0.000E+00  1.07871E+03  1.300E+00  1.498E+01  8.314E-02  1.433E+00
   1    4    5     2     1    3.3666E+01  3.4626E-01   3.3320E+01  0.000E+00  0.000E+00  0.000E+00  1.07337E+03  1.439E+00  1.200E+01  7.800E-02  1.480E+00
   1    5    6     2     2    3.3320E+01  2.6588E-01   3.3054E+01  0.000E+00  0.000E+00  0.000E+00  1.06794E+03  1.431E+00  1.200E+01  6.000E-02  1.477E+00
   1    6    6     2     3    3.3054E+01  2.6546E-01   3.2789E+01  0.000E+00  0.000E+00  0.000E+00  1.06322E+03  1.424E+00  1.200E+01  6.000E-02  1.475E+00
   1    7    6     2     4    3.2789E+01  2.6505E-01   3.2524E+01  0.000E+00  0.000E+00  0.000E+00  1.05849E+03  1.417E+00  1.200E+01  6.000E-02  1.472E+00
   1    8    6     2     5    3.2524E+01  2.6464E-01   3.2259E+01  0.000E+00  0.000E+00  0.000E+00  1.05377E+03  1.411E+00  1.200E+01  6.000E-02  1.470E+00
   1    3    5     3     1    2.0000E+00  2.8252E-01   1.7175E+00  0.000E+00  0.000E+00  0.000E+00  1.07555E+03  1.909E+00  9.636E+00  7.227E-02  1.955E+00
   1    3    6     3     2    1.7175E+00  2.4905E-01   1.4684E+00  0.000E+00  0.000E+00  0.000E+00  1.07264E+03  1.727E+00  8.909E+00  6.682E-02  1.864E+00
   1    3    7     3     3    1.4684E+00  1.9718E-01   1.2712E+00  0.000E+00  0.000E+00  0.000E+00  1.06987E+03  1.555E+00  8.218E+00  5.547E-02  1.777E+00
   1    4    8     3     4    1.2712E+00  2.2567E-01   1.0456E+00  0.000E+00  0.000E+00  0.000E+00  1.06682E+03  1.364E+00  7.455E+00  6.709E-02  1.682E+00
   1    5    8     3     5    1.0456E+00  1.5790E-01   8.8768E-01  0.000E+00  0.000E+00  0.000E+00  1.06362E+03  1.164E+00  6.655E+00  4.991E-02  1.582E+00
   1    6    8     3     6    8.8768E-01  5.5980E-02   8.3170E-01  0.000E+00  0.000E+00  0.000E+00  1.06158E+03  1.036E+00  6.145E+00  1.844E-02  1.518E+00
   1    5   10     4     1    1.0000E+01  9.0919E-02   9.9091E+00  0.000E+00  0.000E+00  0.000E+00  1.07836E+03  6.368E-01  1.000E+01  2.500E-02  1.212E+00
   1    5    9     4     2    9.9091E+00  1.8158E-01   9.7275E+00  0.000E+00  0.000E+00  0.000E+00  1.07154E+03  6.315E-01  1.000E+01  5.000E-02  1.211E+00
   1    6    8     4     3    9.7275E+00  1.2689E-01   9.6006E+00  0.000E+00  0.000E+00  0.000E+00  1.06381E+03  6.256E-01  1.000E+01  3.500E-02  1.209E+00
   1    6    8     5     1    1.0432E+01  2.2686E-01   1.0205E+01  0.000E+00  0.000E+00  0.000E+00  1.05868E+03  6.790E-01  1.542E+01  6.166E-02  1.226E+00
   1    7    7     5     2    1.0205E+01  2.7894E-01   9.9265E+00  0.000E+00  0.000E+00  0.000E+00  1.05417E+03  6.732E-01  1.519E+01  7.594E-02  1.224E+00
   1    8    7     5     3    9.9265E+00  1.9221E-01   9.7343E+00  0.000E+00  0.000E+00  0.000E+00  1.04992E+03  6.676E-01  1.497E+01  5.241E-02  1.223E+00
   1    8    6     5     4    9.7343E+00  1.3577E-01   9.5985E+00  0.000E+00  0.000E+00  0.000E+00  1.04691E+03  6.637E-01  1.482E+01  3.706E-02  1.221E+00
   1    9    6     6     1    4.1857E+01  2.7961E-01   4.1578E+01  0.000E+00  0.000E+00  0.000E+00  1.04439E+03  1.660E+00  1.200E+01  6.000E-02  1.553E+00
   1   10    7     6     2    4.1578E+01  2.7921E-01   4.1299E+01  0.000E+00  0.000E+00  0.000E+00  1.03984E+03  1.654E+00  1.200E+01  6.000E-02  1.551E+00
   1   11    7     6     3    4.1299E+01  2.7881E-01   4.1020E+01  0.000E+00  0.000E+00  0.000E+00  1.03528E+03  1.647E+00  1.200E+01  6.000E-02  1.549E+00
   1   12    7     6     4    4.1020E+01  2.7841E-01   4.0741E+01  0.000E+00  0.000E+00  0.000E+00  1.03073E+03  1.640E+00  1.200E+01  6.000E-02  1.547E+00
   1   13    7     6     5    4.0741E+01  1.2319E-02   4.0729E+01  0.000E+00  0.000E+00  0.000E+00  1.02755E+03  1.637E+00  1.200E+01  2.400E-02  1.711E-01
   1   14    9     7     1    1.5000E+02  1.3407E+00   1.4866E+02  0.000E+00  0.000E+00  0.000E+00  1.03987E+03  2.288E+00  5.529E+01  5.593E-01  7.991E-01
   1   13    8     7     2    1.4866E+02  1.8473E+00   1.4681E+02  0.000E+00  0.000E+00  0.000E+00  1.03478E+03  2.279E+00  5.526E+01  6.148E-01  1.002E+00
   1   13    7     7     3    1.4681E+02  1.4839E+00   1.4533E+02  0.000E+00  0.000E+00  0.000E+00  1.02969E+03  2.270E+00  5.522E+01  5.584E-01  8.857E-01
   1   13    6     8     1    1.8606E+02  1.0069E+00   1.8505E+02  0.000E+00  0.000E+00  0.000E+00  1.02493E+03  3.051E+00  4.424E+01  4.508E-01  7.446E-01
   1   13    5     8     2    1.8505E+02  2.3133E-01   1.8482E+02  0.000E+00  0.000E+00  0.000E+00  1.01867E+03  3.047E+00  4.418E+01  4.502E-01  1.713E-01
   1   13    4     8     3    1.8482E+02 -2.1088E+00   1.8693E+02  0.000E+00  0.000E+00  0.000E+00  1.01243E+03  3.053E+00  4.426E+01  4.511E+00 -1.558E-01
   1   13    3     8     4    1.8693E+02 -3.3946E+00   1.9032E+02  0.000E+00  0.000E+00  0.000E+00  1.00619E+03  3.070E+00  4.451E+01  4.536E+00 -2.495E-01
   1   13    2     8     5    1.9032E+02 -2.3348E+00   1.9266E+02  0.000E+00  0.000E+00  0.000E+00  9.99962E+02  3.087E+00  4.476E+01  4.561E+00 -1.706E-01
   1   13    1     8     6    1.9266E+02 -1.8891E+00   1.9455E+02  0.000E+00  0.000E+00  0.000E+00  9.94975E+02  3.100E+00  4.495E+01  2.748E+00 -2.291E-01
   1    8    6     9     1    0.0000E+00  0.0000E+00   0.0000E+00  0.000E+00  0.000E+00  0.000E+00  1.07875E+03  0.000E+00  4.000E+00  0.000E+00  1.000E+00
   1    8    5     9     2    0.0000E+00  0.0000E+00   0.0000E+00  0.000E+00  0.000E+00  0.000E+00  1.07825E+03  0.000E+00  4.000E+00  0.000E+00  1.000E+00





UNSATURATED ZONE PACKAGE VOLUMETRIC BUDGET FOR  TIME STEP    30 STRESS PERIOD   29
  ------------------------------------------------------------------------------



     CUMULATIVE VOLUMES      L**3       RATES FOR THIS TIME STEP      L**3/T
     ------------------                 ------------------------

           IN:                                      IN:
           ---                                      ---
        INFILTRATION =  1038729601.6154          INFILTRATION =           0.8475

          OUT:                                     OUT:
          ----                                     ----
              UZF ET =   870166803.4489                UZF ET =           0.8475
        UZF RECHARGE =       73224.0000          UZF RECHARGE =       0.0000E+00

            IN - OUT =   168489574.1664              IN - OUT =       0.0000E+00

          STORAGE:                                 STORAGE:
          --------                                 --------
      STORAGE CHANGE =   168609776.8977        STORAGE CHANGE =      -4.4486E-14

 PERCENT DISCREPANCY IS DIFFERENCE BETWEEN IN-OUT MINUS CHANGE IN STORAGE
 DIVIDED BY THE AVERAGE OF IN AND OUT TIMES 100

 PERCENT DISCREPANCY =          -0.00     PERCENT DISCREPANCY =           0.00






1
  VOLUMETRIC BUDGET FOR AGRICULTURAL FIELDS AT  END OF TIME STEP   30, STRESS PERIOD  29
  ------------------------------------------------------------------------------

     CUMULATIVE VOLUMES      L**3       RATES FOR THIS TIME STEP      L**3/T
     ------------------                 ------------------------

           IN:                                      IN:
           ---                                      ---
           AG WELLS      =   363470336.0000             AG WELLS      =           0.0000
      DIVERSION SEGMENTS =   612812416.0000        DIVERSION SEGMENTS =           0.0000
           GW IRRIGATION =           0.0000             GW IRRIGATION =           0.0000
           SW IRRIGATION =           0.0000             SW IRRIGATION =           0.0000
        SYSTEM LOSSES GW =           0.0000          SYSTEM LOSSES GW =           0.0000
        SYSTEM LOSSES SW =           0.0000          SYSTEM LOSSES SW =           0.0000

                TOTAL IN =   976282752.0000                  TOTAL IN =           0.0000

          OUT:                                     OUT:
          ----                                     ----
           AG WELLS      =           0.0000             AG WELLS      =           0.0000
      DIVERSION SEGMENTS =           0.0000        DIVERSION SEGMENTS =           0.0000
           GW IRRIGATION =   363470336.0000             GW IRRIGATION =           0.0000
           SW IRRIGATION =   612825280.0000             SW IRRIGATION =           0.0000
        SYSTEM LOSSES GW =           0.0000          SYSTEM LOSSES GW =           0.0000
        SYSTEM LOSSES SW =           0.0000          SYSTEM LOSSES SW =           0.0000

               TOTAL OUT =   976295616.0000                 TOTAL OUT =           0.0000

                IN - OUT =      -12864.0000                  IN - OUT =           0.0000

     PERCENT DISCREPANCY =          -0.00         PERCENT DISCREPANCY =           0.00



1
  VOLUMETRIC BUDGET FOR ENTIRE MODEL AT END OF TIME STEP   30, STRESS PERIOD  29
  ------------------------------------------------------------------------------

     CUMULATIVE VOLUMES      L**3       RATES FOR THIS TIME STEP      L**3/T
     ------------------                 ------------------------

           IN:                                      IN:
           ---                                      ---
             STORAGE     =   615182400.0000               STORAGE     =           2.0915
       CONSTANT HEAD     =           0.0000         CONSTANT HEAD     =           0.0000
     HEAD DEP BOUNDS     =    21072642.0000       HEAD DEP BOUNDS     =           0.2861
      STREAM LEAKAGE     =   876966656.0000        STREAM LEAKAGE     =          12.3426
        UZF RECHARGE     =       73223.9531          UZF RECHARGE     =           0.0000
               GW ET     =           0.0000                 GW ET     =           0.0000
     SURFACE LEAKAGE     =           0.0000       SURFACE LEAKAGE     =           0.0000
           AG WELLS      =           0.0000             AG WELLS      =           0.0000

                TOTAL IN =  1513294848.0000                  TOTAL IN =          14.7202

          OUT:                                     OUT:
          ----                                     ----
             STORAGE     =   332033504.0000               STORAGE     =           4.7024
       CONSTANT HEAD     =           0.0000         CONSTANT HEAD     =           0.0000
     HEAD DEP BOUNDS     =    21428678.0000       HEAD DEP BOUNDS     =           0.2912
      STREAM LEAKAGE     =   794125568.0000        STREAM LEAKAGE     =           9.7274
        UZF RECHARGE     =           0.0000          UZF RECHARGE     =           0.0000
               GW ET     =     2246157.5000                 GW ET     =           0.0000
     SURFACE LEAKAGE     =           0.0000       SURFACE LEAKAGE     =           0.0000
           AG WELLS      =   363470336.0000             AG WELLS      =           0.0000

               TOTAL OUT =  1513304192.0000                 TOTAL OUT =          14.7209

                IN - OUT =       -9344.0000                  IN - OUT =      -7.4005E-04

     PERCENT DISCREPANCY =          -0.00         PERCENT DISCREPANCY =          -0.01






         TIME SUMMARY AT END OF TIME STEP   30 IN STRESS PERIOD   29
                    SECONDS     MINUTES      HOURS       DAYS        YEARS
                    -----------------------------------------------------------
   TIME STEP LENGTH  87667.      1461.1      24.352      1.0147     2.77799E-03
 STRESS PERIOD TIME 2.63000E+06  43833.      730.56      30.440     8.33397E-02
         TOTAL TIME 7.37266E+07 1.22878E+06  20480.      853.32      2.3363    
1
1
                            STRESS PERIOD NO.   30, LENGTH =   2630000.    
                            -----------------------------------------------

                              NUMBER OF TIME STEPS =    30

                               MULTIPLIER FOR DELT =     1.000

                            INITIAL TIME STEP SIZE =   87666.66    

 REUSING NON-PARAMETER GHB CELLS FROM LAST STRESS PERIOD

      2 GHB CELLS

 REUSING STREAM SEGMENT DATA FROM LAST STRESS PERIOD



            AREAL INFILTRATION RATE
 READING ON UNIT   19 WITH FORMAT: (FREE)              

            1           2           3           4           5           6           7           8           9          10
 ........................................................................................................................
   1   1.0000E-10  2.0000E-10   0.000       0.000       0.000       0.000       0.000       0.000       0.000       0.000    
   2   2.0000E-10  1.0000E-10  2.0000E-10   0.000       0.000      8.0000E-10  8.0000E-10  5.0000E-10   0.000       0.000    
   3    0.000      5.0000E-10  1.0000E-10  1.0000E-10  8.0000E-10  8.0000E-10  5.0000E-10  5.0000E-10   0.000       0.000    
   4   8.0000E-10  5.0000E-10  1.0000E-10  1.0000E-10  1.0000E-10  1.0000E-10  1.0000E-10  1.0000E-10  2.0000E-10   0.000    
   5   8.0000E-10  5.0000E-10  1.0000E-10  1.0000E-10  1.0000E-10  1.0000E-10  1.0000E-10  1.0000E-10  1.0000E-10  1.0000E-10
   6   8.0000E-10  5.0000E-10  5.0000E-10  2.0000E-10  2.0000E-10  1.0000E-10  1.0000E-10  1.0000E-10  1.0000E-10  5.0000E-10
   7   8.0000E-10  5.0000E-10  5.0000E-10  2.0000E-10  2.0000E-10  1.0000E-10  1.0000E-10  2.0000E-10  2.0000E-10   0.000    
   8    0.000      5.0000E-10  5.0000E-10  2.0000E-10  2.0000E-10  1.0000E-10  1.0000E-10  2.0000E-10  5.0000E-10   0.000    
   9    0.000      5.0000E-10  5.0000E-10  2.0000E-10  2.0000E-10  1.0000E-10  1.0000E-10  2.0000E-10  5.0000E-10   0.000    
  10    0.000      5.0000E-10  5.0000E-10  2.0000E-10  2.0000E-10  1.0000E-10  1.0000E-10  2.0000E-10  5.0000E-10  8.0000E-10
  11    0.000      1.0000E-10  1.0000E-10  1.0000E-10  1.0000E-10  1.0000E-10  1.0000E-10  2.0000E-10  5.0000E-10   0.000    
  12   1.0000E-10  1.0000E-10  1.0000E-10  1.0000E-10  1.0000E-10  1.0000E-10  1.0000E-10  1.0000E-10  2.0000E-10   0.000    
  13   1.0000E-10  1.0000E-10  2.0000E-10  2.0000E-10  2.0000E-10  2.0000E-10  2.0000E-10  1.0000E-10  1.0000E-10   0.000    
  14    0.000      2.0000E-10  5.0000E-10  5.0000E-10  5.0000E-10  5.0000E-10  5.0000E-10  2.0000E-10  1.0000E-10   0.000    
  15    0.000       0.000      8.0000E-10  8.0000E-10  8.0000E-10  8.0000E-10   0.000       0.000       0.000       0.000    

                  ET RATE =  5.000000E-08

 USING ET EXTINCTION DEPTH FROM PREVIOUS STRESS PERIOD. CURRENT PERIOD IS:      30

 USING EXTINCTION WATER CONTENT FROM PREVIOUS STRESS PERIOD. CURRENT PERIOD IS:      30

 USING AIR ENTRY PRESSURE FROM PREVIOUS STRESS PERIOD. CURRENT PERIOD IS:      30

 USING ROOT PRESSURE HEAD FROM PREVIOUS STRESS PERIOD. CURRENT PERIOD IS:      30

 USING ROOT ACTIVITY FROM PREVIOUS STRESS PERIOD. CURRENT PERIOD IS:      30

 PROCESSING AG STRESS PERIOD DATA

 READING AG STRESS PERIOD DATA

 READING IRRIGATION SEGMENT

 READING IRRIGATION WELL

 READING SUPPLEMENTAL WELL

 END PROCESSING AG STRESS PERIOD DATA OPTIONS
 
 SOLVING FOR HEAD 
                                                   Max.-Head-Change                         Max.-Flux-Residual
  Residual-Control   Outer-Iter.   Inner-Iter.     Column Row Layer    Maximum-Head-Change  Column Row Layer    Maximum-Flux-Residual          L2-NORM 
          0                 1           2             4   13     1       0.1615293925E-01       4   13    1         0.9326700458E+00      0.1864534725E+01
          0                 2           2             4    7     1      -0.1862598044E+01       4    7    1        -0.1000319619E+03      0.2450275232E+03
          0                 3           2             4    7     1       0.1258810405E+00       5    8    1         0.7045525629E+01      0.1709684960E+02
          0                 4           2             4    7     1      -0.5009015857E-02       5    8    1        -0.2881672658E+00      0.6993278600E+00
          0                 5           1             4    7     1       0.6176318892E-04       5    8    1         0.3651959750E-02      0.8887941503E-02

    ------------------------------------------------
       NWT REQUIRED            5 OUTER ITERATIONS 
       AND A TOTAL OF          9 INNER ITERATIONS.
    ------------------------------------------------

 NO OUTPUT CONTROL FOR STRESS PERIOD   30   TIME STEP    1
 
 SOLVING FOR HEAD 
                                                   Max.-Head-Change                         Max.-Flux-Residual
  Residual-Control   Outer-Iter.   Inner-Iter.     Column Row Layer    Maximum-Head-Change  Column Row Layer    Maximum-Flux-Residual          L2-NORM 
          0                 1           2             5    8     1       0.5760987857E-01       5    8    1         0.3164688197E+01      0.6785016549E+01
          0                 2           2             5    8     1      -0.5607979614E-02       5    8    1        -0.3166946532E+00      0.7377034700E+00
          0                 3           2             5    8     1       0.3859103016E-03       5    8    1         0.2239662479E-01      0.5188096333E-01
          0                 4           1             5    8     1      -0.1927390198E-04       5    8    1        -0.1143992075E-02      0.2554950766E-02

    ------------------------------------------------
       NWT REQUIRED            4 OUTER ITERATIONS 
       AND A TOTAL OF          7 INNER ITERATIONS.
    ------------------------------------------------

 NO OUTPUT CONTROL FOR STRESS PERIOD   30   TIME STEP    2
 
 SOLVING FOR HEAD 
                                                   Max.-Head-Change                         Max.-Flux-Residual
  Residual-Control   Outer-Iter.   Inner-Iter.     Column Row Layer    Maximum-Head-Change  Column Row Layer    Maximum-Flux-Residual          L2-NORM 
          0                 1           2             5    8     1       0.5455621124E-01       5    8    1         0.2993787920E+01      0.6449083077E+01
          0                 2           2             5    8     1      -0.5310945715E-02       5    8    1        -0.2996049522E+00      0.6438298060E+00
          0                 3           2             5    8     1       0.3656833476E-03       5    8    1         0.2120034211E-01      0.4537260880E-01
          0                 4           1             5    8     1      -0.1846905183E-04       5    8    1        -0.1095064057E-02      0.2328917629E-02

    ------------------------------------------------
       NWT REQUIRED            4 OUTER ITERATIONS 
       AND A TOTAL OF          7 INNER ITERATIONS.
    ------------------------------------------------

 NO OUTPUT CONTROL FOR STRESS PERIOD   30   TIME STEP    3
 
 SOLVING FOR HEAD 
                                                   Max.-Head-Change                         Max.-Flux-Residual
  Residual-Control   Outer-Iter.   Inner-Iter.     Column Row Layer    Maximum-Head-Change  Column Row Layer    Maximum-Flux-Residual          L2-NORM 
          0                 1           2             5    8     1       0.5171876825E-01       5    8    1         0.2835103983E+01      0.6141315807E+01
          0                 2           2             5    8     1      -0.5034943773E-02       5    8    1        -0.2837368306E+00      0.6132444383E+00
          0                 3           2             5    8     1       0.3468885995E-03       5    8    1         0.2008957053E-01      0.4325544093E-01
          0                 4           1             5    8     1      -0.1772119065E-04       5    8    1        -0.1049633452E-02      0.2249337128E-02

    ------------------------------------------------
       NWT REQUIRED            4 OUTER ITERATIONS 
       AND A TOTAL OF          7 INNER ITERATIONS.
    ------------------------------------------------

 NO OUTPUT CONTROL FOR STRESS PERIOD   30   TIME STEP    4
 
 SOLVING FOR HEAD 
                                                   Max.-Head-Change                         Max.-Flux-Residual
  Residual-Control   Outer-Iter.   Inner-Iter.     Column Row Layer    Maximum-Head-Change  Column Row Layer    Maximum-Flux-Residual          L2-NORM 
          0                 1           2             5    8     1       0.4908013865E-01       5    8    1         0.2687646790E+01      0.5856969937E+01
          0                 2           2             5    8     1      -0.4778280310E-02       5    8    1        -0.2689913380E+00      0.5849788223E+00
          0                 3           2             5    8     1       0.3294107370E-03       5    8    1         0.1905738347E-01      0.4129836536E-01
          0                 4           1             5    8     1      -0.1702572945E-04       5    8    1        -0.1007416951E-02      0.2175906932E-02

    ------------------------------------------------
       NWT REQUIRED            4 OUTER ITERATIONS 
       AND A TOTAL OF          7 INNER ITERATIONS.
    ------------------------------------------------

 NO OUTPUT CONTROL FOR STRESS PERIOD   30   TIME STEP    5
 
 SOLVING FOR HEAD 
                                                   Max.-Head-Change                         Max.-Flux-Residual
  Residual-Control   Outer-Iter.   Inner-Iter.     Column Row Layer    Maximum-Head-Change  Column Row Layer    Maximum-Flux-Residual          L2-NORM 
          0                 1           2             5    8     1       0.4662473550E-01       5    8    1         0.2550529330E+01      0.5593961244E+01
          0                 2           2             5    8     1      -0.4607259781E-02       5    8    1        -0.2590143393E+00      0.5683143187E+00
          0                 3           2             5    8     1       0.2764287307E-03       5    8    1         0.1601918186E-01      0.3514039489E-01
          0                 4           1             5    8     1      -0.6551431045E-04       5    8    1        -0.3826986031E-02      0.9296647769E-02

    ------------------------------------------------
       NWT REQUIRED            4 OUTER ITERATIONS 
       AND A TOTAL OF          7 INNER ITERATIONS.
    ------------------------------------------------

 NO OUTPUT CONTROL FOR STRESS PERIOD   30   TIME STEP    6
 
 SOLVING FOR HEAD 
                                                   Max.-Head-Change                         Max.-Flux-Residual
  Residual-Control   Outer-Iter.   Inner-Iter.     Column Row Layer    Maximum-Head-Change  Column Row Layer    Maximum-Flux-Residual          L2-NORM 
          0                 1           2             5    8     1       0.4434301822E-01       5    8    1         0.2423201723E+01      0.5349676188E+01
          0                 2           2             5    8     1      -0.2657267270E-01       5    8    1        -0.1468035525E+01      0.3484859854E+01
          0                 3           2             4    7     1       0.2389813431E-01       5    8    1         0.1328478628E+01      0.3244035048E+01
          0                 4           2             4    7     1      -0.9549512415E-03       5    8    1        -0.5454997861E-01      0.1332215259E+00
          0                 5           1             4    7     1       0.1568666481E-04       5    8    1         0.9184407725E-03      0.2246908624E-02

    ------------------------------------------------
       NWT REQUIRED            5 OUTER ITERATIONS 
       AND A TOTAL OF          9 INNER ITERATIONS.
    ------------------------------------------------

 NO OUTPUT CONTROL FOR STRESS PERIOD   30   TIME STEP    7
 
 SOLVING FOR HEAD 
                                                   Max.-Head-Change                         Max.-Flux-Residual
  Residual-Control   Outer-Iter.   Inner-Iter.     Column Row Layer    Maximum-Head-Change  Column Row Layer    Maximum-Flux-Residual          L2-NORM 
          0                 1           2             5    8     1       0.4221141374E-01       5    8    1         0.2304344350E+01      0.5127783160E+01
          0                 2           2             5    8     1      -0.4110147567E-02       5    8    1        -0.2306615738E+00      0.5124513724E+00
          0                 3           2             4    7     1      -0.2300433868E-01       4    7    1        -0.1234913731E+01      0.3025728773E+01
          0                 4           2             4    7     1       0.2408053521E-01       4    7    1         0.1328635467E+01      0.3253638889E+01
          0                 5           2             4    7     1      -0.9624366834E-03       4    7    1        -0.5458367641E-01      0.1336962470E+00
          0                 6           1             4    7     1       0.1578781382E-04       5    8    1         0.9203607267E-03      0.2254580257E-02

    ------------------------------------------------
       NWT REQUIRED            6 OUTER ITERATIONS 
       AND A TOTAL OF         11 INNER ITERATIONS.
    ------------------------------------------------

 NO OUTPUT CONTROL FOR STRESS PERIOD   30   TIME STEP    8
 
 SOLVING FOR HEAD 
                                                   Max.-Head-Change                         Max.-Flux-Residual
  Residual-Control   Outer-Iter.   Inner-Iter.     Column Row Layer    Maximum-Head-Change  Column Row Layer    Maximum-Flux-Residual          L2-NORM 
          0                 1           2             5    8     1       0.4022345975E-01       5    8    1         0.2193578534E+01      0.4921479761E+01
          0                 2           2             5    8     1      -0.3915108197E-02       5    8    1        -0.2194932952E+00      0.4917049700E+00
          0                 3           2             4    7     1      -0.2300672564E-01       4    7    1        -0.1235022880E+01      0.3027228465E+01
          0                 4           2             4    7     1       0.2408372724E-01       4    7    1         0.1328809035E+01      0.3254151397E+01
          0                 5           2             4    7     1      -0.9609451797E-03       4    7    1        -0.5449898536E-01      0.1334922401E+00
          0                 6           1             4    7     1       0.1419462325E-04       5    8    1         0.8275275213E-03      0.2027184385E-02

    ------------------------------------------------
       NWT REQUIRED            6 OUTER ITERATIONS 
       AND A TOTAL OF         11 INNER ITERATIONS.
    ------------------------------------------------

 NO OUTPUT CONTROL FOR STRESS PERIOD   30   TIME STEP    9
 
 SOLVING FOR HEAD 
                                                   Max.-Head-Change                         Max.-Flux-Residual
  Residual-Control   Outer-Iter.   Inner-Iter.     Column Row Layer    Maximum-Head-Change  Column Row Layer    Maximum-Flux-Residual          L2-NORM 
          0                 1           2             5    8     1       0.3836795637E-01       5    8    1         0.2090268740E+01      0.4729612734E+01
          0                 2           2             5    8     1      -0.3736286928E-02       5    8    1        -0.2092542177E+00      0.4727882015E+00
          0                 3           2             4    7     1      -0.2300100452E-01       4    7    1        -0.1234698016E+01      0.3027581599E+01
          0                 4           2             4    7     1       0.2408172602E-01       4    7    1         0.1328696275E+01      0.3253956657E+01
          0                 5           2             4    7     1      -0.9624840838E-03       4    7    1        -0.5458616264E-01      0.1337092087E+00
          0                 6           1             4    7     1       0.1502623414E-04       5    8    1         0.8760307912E-03      0.2145928291E-02

    ------------------------------------------------
       NWT REQUIRED            6 OUTER ITERATIONS 
       AND A TOTAL OF         11 INNER ITERATIONS.
    ------------------------------------------------

 NO OUTPUT CONTROL FOR STRESS PERIOD   30   TIME STEP   10
 
 SOLVING FOR HEAD 
                                                   Max.-Head-Change                         Max.-Flux-Residual
  Residual-Control   Outer-Iter.   Inner-Iter.     Column Row Layer    Maximum-Head-Change  Column Row Layer    Maximum-Flux-Residual          L2-NORM 
          0                 1           2             5    8     1       0.3663482501E-01       5    8    1         0.1993843602E+01      0.4550943808E+01
          0                 2           2             5    8     1      -0.3566034394E-02       5    8    1        -0.1995199749E+00      0.4547832231E+00
          0                 3           2             4    7     1      -0.2300394974E-01       4    7    1        -0.1234839432E+01      0.3029000100E+01
          0                 4           2             4    7     1       0.2408488911E-01       4    7    1         0.1328868645E+01      0.3254454817E+01
          0                 5           2             4    7     1      -0.9626099791E-03       4    7    1        -0.5459321374E-01      0.1337295726E+00
          0                 6           1             4    7     1       0.1578996273E-04       5    8    1         0.9205739250E-03      0.2255001900E-02

    ------------------------------------------------
       NWT REQUIRED            6 OUTER ITERATIONS 
       AND A TOTAL OF         11 INNER ITERATIONS.
    ------------------------------------------------

 NO OUTPUT CONTROL FOR STRESS PERIOD   30   TIME STEP   11
 
 SOLVING FOR HEAD 
                                                   Max.-Head-Change                         Max.-Flux-Residual
  Residual-Control   Outer-Iter.   Inner-Iter.     Column Row Layer    Maximum-Head-Change  Column Row Layer    Maximum-Flux-Residual          L2-NORM 
          0                 1           2             5    8     1       0.3501491435E-01       5    8    1         0.1903784093E+01      0.4384331928E+01
          0                 2           2             5    8     1      -0.3408462233E-02       5    8    1        -0.1905140910E+00      0.4393892719E+00
          0                 3           2             4    7     1      -0.2300295900E-01       4    7    1        -0.1234770668E+01      0.3029793454E+01
          0                 4           2             4    7     1       0.2408545952E-01       4    7    1         0.1328898151E+01      0.3254597756E+01
          0                 5           2             4    7     1      -0.9626326836E-03       4    7    1        -0.5459442010E-01      0.1337354172E+00
          0                 6           1             4    7     1       0.1579024535E-04       5    8    1         0.9206153773E-03      0.2255077575E-02

    ------------------------------------------------
       NWT REQUIRED            6 OUTER ITERATIONS 
       AND A TOTAL OF         11 INNER ITERATIONS.
    ------------------------------------------------

 NO OUTPUT CONTROL FOR STRESS PERIOD   30   TIME STEP   12
 
 SOLVING FOR HEAD 
                                                   Max.-Head-Change                         Max.-Flux-Residual
  Residual-Control   Outer-Iter.   Inner-Iter.     Column Row Layer    Maximum-Head-Change  Column Row Layer    Maximum-Flux-Residual          L2-NORM 
          0                 1           2             5    8     1       0.3349964379E-01       5    8    1         0.1819604234E+01      0.4228634424E+01
          0                 2           2             5    8     1      -0.3262735816E-02       5    8    1        -0.1821879704E+00      0.4228696693E+00
          0                 3           2             4    7     1      -0.2299803888E-01       4    7    1        -0.1234492027E+01      0.3030077864E+01
          0                 4           2             4    7     1       0.2408346375E-01       4    7    1         0.1328786243E+01      0.3254389642E+01
          0                 5           2             4    7     1      -0.9625532524E-03       5    8    1        -0.5459173716E-01      0.1337268921E+00
          0                 6           1             4    7     1       0.1578926790E-04       5    8    1         0.9205814272E-03      0.2254967822E-02

    ------------------------------------------------
       NWT REQUIRED            6 OUTER ITERATIONS 
       AND A TOTAL OF         11 INNER ITERATIONS.
    ------------------------------------------------

 NO OUTPUT CONTROL FOR STRESS PERIOD   30   TIME STEP   13
 
 SOLVING FOR HEAD 
                                                   Max.-Head-Change                         Max.-Flux-Residual
  Residual-Control   Outer-Iter.   Inner-Iter.     Column Row Layer    Maximum-Head-Change  Column Row Layer    Maximum-Flux-Residual          L2-NORM 
          0                 1           2             5    6     1       0.3211534319E-01       5    8    1         0.1740857732E+01      0.4082271923E+01
          0                 2           2             5    6     1      -0.3128087216E-02       5    8    1        -0.1743133688E+00      0.4082818623E+00
          0                 3           2             4    7     1      -0.2299754745E-01       4    7    1        -0.1234452073E+01      0.3030849390E+01
          0                 4           2             4    7     1       0.2408405596E-01       4    7    1         0.1328817288E+01      0.3254526934E+01
          0                 5           2             4    7     1      -0.9609582666E-03       5    8    1        -0.5450298453E-01      0.1335075430E+00
          0                 6           1             4    7     1       0.1419479251E-04       5    8    1         0.8276633259E-03      0.2027374797E-02

    ------------------------------------------------
       NWT REQUIRED            6 OUTER ITERATIONS 
       AND A TOTAL OF         11 INNER ITERATIONS.
    ------------------------------------------------

 NO OUTPUT CONTROL FOR STRESS PERIOD   30   TIME STEP   14
 
 SOLVING FOR HEAD 
                                                   Max.-Head-Change                         Max.-Flux-Residual
  Residual-Control   Outer-Iter.   Inner-Iter.     Column Row Layer    Maximum-Head-Change  Column Row Layer    Maximum-Flux-Residual          L2-NORM 
          0                 1           2             5    6     1       0.3084799294E-01       5    6    1         0.1669110371E+01      0.3945483910E+01
          0                 2           2             5    6     1      -0.3004807673E-02       5    6    1        -0.1671386056E+00      0.3943377043E+00
          0                 3           2             4    7     1      -0.2299730626E-01       4    7    1        -0.1234425944E+01      0.3031610114E+01
          0                 4           2             4    7     1       0.2408468106E-01       5    8    1         0.1329549060E+01      0.3255054111E+01
          0                 5           2             4    7     1      -0.9625988645E-03       5    6    1        -0.5459567896E-01      0.1335757212E+00
          0                 6           1             4    7     1       0.1578983582E-04       5    6    1         0.9206068760E-03      0.2253155468E-02

    ------------------------------------------------
       NWT REQUIRED            6 OUTER ITERATIONS 
       AND A TOTAL OF         11 INNER ITERATIONS.
    ------------------------------------------------

 NO OUTPUT CONTROL FOR STRESS PERIOD   30   TIME STEP   15
 
 SOLVING FOR HEAD 
                                                   Max.-Head-Change                         Max.-Flux-Residual
  Residual-Control   Outer-Iter.   Inner-Iter.     Column Row Layer    Maximum-Head-Change  Column Row Layer    Maximum-Flux-Residual          L2-NORM 
          0                 1           2             5    6     1       0.2965467420E-01       5    6    1         0.1603234470E+01      0.3817648193E+01
          0                 2           2             5    6     1      -0.2888732519E-02       5    6    1        -0.1605510571E+00      0.3818997130E+00
          0                 3           2             4    7     1      -0.2299722636E-01       4    7    1        -0.1234409915E+01      0.3032303951E+01
          0                 4           2             4    7     1       0.2408527300E-01       4    7    1         0.1328881069E+01      0.3254792043E+01
          0                 5           2             4    7     1      -0.9626252726E-03       5    8    1        -0.5460037297E-01      0.1337431310E+00
          0                 6           1             4    7     1       0.1579016302E-04       5    8    1         0.9206743928E-03      0.2255160205E-02

    ------------------------------------------------
       NWT REQUIRED            6 OUTER ITERATIONS 
       AND A TOTAL OF         11 INNER ITERATIONS.
    ------------------------------------------------

 NO OUTPUT CONTROL FOR STRESS PERIOD   30   TIME STEP   16
 
 SOLVING FOR HEAD 
                                                   Max.-Head-Change                         Max.-Flux-Residual
  Residual-Control   Outer-Iter.   Inner-Iter.     Column Row Layer    Maximum-Head-Change  Column Row Layer    Maximum-Flux-Residual          L2-NORM 
          0                 1           2             5    6     1       0.2853060406E-01       5    6    1         0.1541221566E+01      0.3698580922E+01
          0                 2           2             5    6     1      -0.2779391698E-02       5    6    1        -0.1543498043E+00      0.3700252920E+00
          0                 3           2             4    7     1      -0.2299732874E-01       4    7    1        -0.1234404515E+01      0.3032982241E+01
          0                 4           2             4    7     1       0.2408585774E-01       4    7    1         0.1328912149E+01      0.3254916628E+01
          0                 5           2             4    7     1      -0.9626485948E-03       5    8    1        -0.5460299842E-01      0.1337483185E+00
          0                 6           1             4    7     1       0.1579045213E-04       5    8    1         0.9207076037E-03      0.2255225886E-02

    ------------------------------------------------
       NWT REQUIRED            6 OUTER ITERATIONS 
       AND A TOTAL OF         11 INNER ITERATIONS.
    ------------------------------------------------

 NO OUTPUT CONTROL FOR STRESS PERIOD   30   TIME STEP   17
 
 SOLVING FOR HEAD 
                                                   Max.-Head-Change                         Max.-Flux-Residual
  Residual-Control   Outer-Iter.   Inner-Iter.     Column Row Layer    Maximum-Head-Change  Column Row Layer    Maximum-Flux-Residual          L2-NORM 
          0                 1           2             5    6     1       0.2747079223E-01       5    6    1         0.1482790968E+01      0.3586756484E+01
          0                 2           2             5    6     1      -0.2674631540E-02       5    6    1        -0.1484149703E+00      0.3586602865E+00
          0                 3           2             4    7     1      -0.2300174265E-01       4    7    1        -0.1234631353E+01      0.3034179618E+01
          0                 4           2             4    7     1       0.2408897224E-01       4    7    1         0.1329082950E+01      0.3255380091E+01
          0                 5           2             4    7     1      -0.9611555871E-03       5    8    1        -0.5451952499E-01      0.1335428772E+00
          0                 6           1             4    7     1       0.1419723121E-04       5    8    1         0.8278566404E-03      0.2027811787E-02

    ------------------------------------------------
       NWT REQUIRED            6 OUTER ITERATIONS 
       AND A TOTAL OF         11 INNER ITERATIONS.
    ------------------------------------------------

 NO OUTPUT CONTROL FOR STRESS PERIOD   30   TIME STEP   18
 
 SOLVING FOR HEAD 
                                                   Max.-Head-Change                         Max.-Flux-Residual
  Residual-Control   Outer-Iter.   Inner-Iter.     Column Row Layer    Maximum-Head-Change  Column Row Layer    Maximum-Flux-Residual          L2-NORM 
          0                 1           2             5    6     1       0.2647137003E-01       5    6    1         0.1427725063E+01      0.3481598211E+01
          0                 2           2             5    6     1      -0.2579085327E-02       5    6    1        -0.1430002186E+00      0.3483800767E+00
          0                 3           2             4    7     1      -0.2299804984E-01       4    7    1        -0.1234423829E+01      0.3034265639E+01
          0                 4           2             4    7     1       0.2408704057E-01       4    7    1         0.1328975466E+01      0.3255158706E+01
          0                 5           2             4    7     1      -0.9626958648E-03       5    8    1        -0.5460798875E-01      0.1337585716E+00
          0                 6           1             4    7     1       0.1579103719E-04       5    8    1         0.9207707337E-03      0.2255356363E-02

    ------------------------------------------------
       NWT REQUIRED            6 OUTER ITERATIONS 
       AND A TOTAL OF         11 INNER ITERATIONS.
    ------------------------------------------------

 NO OUTPUT CONTROL FOR STRESS PERIOD   30   TIME STEP   19
 
 SOLVING FOR HEAD 
                                                   Max.-Head-Change                         Max.-Flux-Residual
  Residual-Control   Outer-Iter.   Inner-Iter.     Column Row Layer    Maximum-Head-Change  Column Row Layer    Maximum-Flux-Residual          L2-NORM 
          0                 1           2             5    6     1       0.2552788427E-01       5    6    1         0.1375773881E+01      0.3382580371E+01
          0                 2           2             5    6     1      -0.2487310297E-02       5    6    1        -0.1378051282E+00      0.3384997307E+00
          0                 3           2             4    7     1      -0.2299862498E-01       4    7    1        -0.1234446094E+01      0.3034870967E+01
          0                 4           2             4    7     1       0.2408761885E-01       4    7    1         0.1329006576E+01      0.3255273743E+01
          0                 5           2             4    7     1      -0.9627188807E-03       5    8    1        -0.5461032194E-01      0.1337632816E+00
          0                 6           1             4    7     1       0.1579132160E-04       5    8    1         0.9208002666E-03      0.2255418204E-02

    ------------------------------------------------
       NWT REQUIRED            6 OUTER ITERATIONS 
       AND A TOTAL OF         11 INNER ITERATIONS.
    ------------------------------------------------

 NO OUTPUT CONTROL FOR STRESS PERIOD   30   TIME STEP   20
 
 SOLVING FOR HEAD 
                                                   Max.-Head-Change                         Max.-Flux-Residual
  Residual-Control   Outer-Iter.   Inner-Iter.     Column Row Layer    Maximum-Head-Change  Column Row Layer    Maximum-Flux-Residual          L2-NORM 
          0                 1           2             5    6     1       0.2463680720E-01       5    6    1         0.1326739410E+01      0.3289232706E+01
          0                 2           2             5    6     1      -0.2400633165E-02       5    6    1        -0.1329017063E+00      0.3291834332E+00
          0                 3           2             4    7     1      -0.2299933328E-01       4    7    1        -0.1234476178E+01      0.3035454162E+01
          0                 4           2             4    7     1       0.2408819436E-01       4    7    1         0.1329037638E+01      0.3255385722E+01
          0                 5           2             4    7     1      -0.9611232253E-03       5    8    1        -0.5452077766E-01      0.1335428975E+00
          0                 6           1             4    7     1       0.1419683333E-04       5    8    1         0.8278723171E-03      0.2027815181E-02

    ------------------------------------------------
       NWT REQUIRED            6 OUTER ITERATIONS 
       AND A TOTAL OF         11 INNER ITERATIONS.
    ------------------------------------------------

 NO OUTPUT CONTROL FOR STRESS PERIOD   30   TIME STEP   21
 
 SOLVING FOR HEAD 
                                                   Max.-Head-Change                         Max.-Flux-Residual
  Residual-Control   Outer-Iter.   Inner-Iter.     Column Row Layer    Maximum-Head-Change  Column Row Layer    Maximum-Flux-Residual          L2-NORM 
          0                 1           2             5    6     1       0.2379488161E-01       5    6    1         0.1280438743E+01      0.3201124434E+01
          0                 2           2             5    6     1      -0.2318737098E-02       5    6    1        -0.1282716624E+00      0.3203884406E+00
          0                 3           2             4    7     1      -0.2300018745E-01       4    7    1        -0.1234514724E+01      0.3036019660E+01
          0                 4           2             4    7     1       0.2408879180E-01       4    7    1         0.1329070008E+01      0.3255498209E+01
          0                 5           2             4    7     1      -0.9587450868E-03       5    8    1        -0.5438678331E-01      0.1332136670E+00
          0                 6           1             4    7     1       0.1182778643E-04       5    8    1         0.6897958197E-03      0.1689647493E-02

    ------------------------------------------------
       NWT REQUIRED            6 OUTER ITERATIONS 
       AND A TOTAL OF         11 INNER ITERATIONS.
    ------------------------------------------------

 NO OUTPUT CONTROL FOR STRESS PERIOD   30   TIME STEP   22
 
 SOLVING FOR HEAD 
                                                   Max.-Head-Change                         Max.-Flux-Residual
  Residual-Control   Outer-Iter.   Inner-Iter.     Column Row Layer    Maximum-Head-Change  Column Row Layer    Maximum-Flux-Residual          L2-NORM 
          0                 1           2             5    7     1       0.2310374343E-01       5    6    1         0.1236670011E+01      0.3117855146E+01
          0                 2           2             5    7     1      -0.2251568398E-02       5    6    1        -0.1238948099E+00      0.3120767111E+00
          0                 3           2             4    7     1      -0.2300118850E-01       4    7    1        -0.1234561751E+01      0.3036569587E+01
          0                 4           2             4    7     1       0.2408942212E-01       4    7    1         0.1329104283E+01      0.3255612828E+01
          0                 5           2             4    7     1      -0.9627906514E-03       5    8    1        -0.5461701838E-01      0.1337771239E+00
          0                 6           1             4    7     1       0.1503003248E-04       5    8    1         0.8764597017E-03      0.2146773168E-02

    ------------------------------------------------
       NWT REQUIRED            6 OUTER ITERATIONS 
       AND A TOTAL OF         11 INNER ITERATIONS.
    ------------------------------------------------

 NO OUTPUT CONTROL FOR STRESS PERIOD   30   TIME STEP   23
 
 SOLVING FOR HEAD 
                                                   Max.-Head-Change                         Max.-Flux-Residual
  Residual-Control   Outer-Iter.   Inner-Iter.     Column Row Layer    Maximum-Head-Change  Column Row Layer    Maximum-Flux-Residual          L2-NORM 
          0                 1           2             5    7     1       0.2266164614E-01       5    7    1         0.1200746616E+01      0.3039076547E+01
          0                 2           2             5    7     1      -0.2206871923E-02       5    7    1        -0.1202108507E+00      0.3039946425E+00
          0                 3           2             4    7     1      -0.2300631286E-01       4    7    1        -0.1234830649E+01      0.3037630018E+01
          0                 4           2             4    7     1       0.2409245416E-01       4    7    1         0.1329271155E+01      0.3256049882E+01
          0                 5           2             4    7     1      -0.9612927669E-03       5    8    1        -0.5453281349E-01      0.1335700518E+00
          0                 6           1             4    7     1       0.1419892522E-04       5    8    1         0.8280248144E-03      0.2028151949E-02

    ------------------------------------------------
       NWT REQUIRED            6 OUTER ITERATIONS 
       AND A TOTAL OF         11 INNER ITERATIONS.
    ------------------------------------------------

 NO OUTPUT CONTROL FOR STRESS PERIOD   30   TIME STEP   24
 
 SOLVING FOR HEAD 
                                                   Max.-Head-Change                         Max.-Flux-Residual
  Residual-Control   Outer-Iter.   Inner-Iter.     Column Row Layer    Maximum-Head-Change  Column Row Layer    Maximum-Flux-Residual          L2-NORM 
          0                 1           2             5    7     1       0.2222925555E-01       5    7    1         0.1177774094E+01      0.2964468390E+01
          0                 2           2             5    7     1      -0.2164812594E-02       5    7    1        -0.1179136330E+00      0.2965444654E+00
          0                 3           2             4    7     1      -0.2300745499E-01       4    7    1        -0.1234886336E+01      0.3038135968E+01
          0                 4           2             4    7     1       0.2409302119E-01       4    7    1         0.1329302103E+01      0.3256151743E+01
          0                 5           2             4    7     1      -0.9629338958E-03       5    8    1        -0.5462656567E-01      0.1337991687E+00
          0                 6           1             4    7     1       0.1579397536E-04       5    8    1         0.9210060412E-03      0.2255870514E-02

    ------------------------------------------------
       NWT REQUIRED            6 OUTER ITERATIONS 
       AND A TOTAL OF         11 INNER ITERATIONS.
    ------------------------------------------------

 NO OUTPUT CONTROL FOR STRESS PERIOD   30   TIME STEP   25
 
 SOLVING FOR HEAD 
                                                   Max.-Head-Change                         Max.-Flux-Residual
  Residual-Control   Outer-Iter.   Inner-Iter.     Column Row Layer    Maximum-Head-Change  Column Row Layer    Maximum-Flux-Residual          L2-NORM 
          0                 1           2             5    7     1       0.2180648676E-01       5    7    1         0.1155297412E+01      0.2893713936E+01
          0                 2           2             5    7     1      -0.2125382160E-02       5    7    1        -0.1157578028E+00      0.2896955321E+00
          0                 3           2             4    7     1      -0.2300457465E-01       5    8    1        -0.1234729728E+01      0.3038084498E+01
          0                 4           2             4    7     1       0.2409109028E-01       5    8    1         0.1329209659E+01      0.3255914119E+01
          0                 5           2             4    7     1      -0.9628570433E-03       5    8    1        -0.5462283127E-01      0.1337894281E+00
          0                 6           1             4    7     1       0.1579302625E-04       5    8    1         0.9209586124E-03      0.2255743121E-02

    ------------------------------------------------
       NWT REQUIRED            6 OUTER ITERATIONS 
       AND A TOTAL OF         11 INNER ITERATIONS.
    ------------------------------------------------

 NO OUTPUT CONTROL FOR STRESS PERIOD   30   TIME STEP   26
 
 SOLVING FOR HEAD 
                                                   Max.-Head-Change                         Max.-Flux-Residual
  Residual-Control   Outer-Iter.   Inner-Iter.     Column Row Layer    Maximum-Head-Change  Column Row Layer    Maximum-Flux-Residual          L2-NORM 
          0                 1           2             5    7     1       0.2139349353E-01       5    7    1         0.1133327823E+01      0.2826552164E+01
          0                 2           2             5    7     1      -0.2085209539E-02       5    7    1        -0.1135608694E+00      0.2829879097E+00
          0                 3           2             4    7     1      -0.2300586446E-01       5    8    1        -0.1234999979E+01      0.3038555381E+01
          0                 4           2             4    7     1       0.2409163576E-01       5    8    1         0.1329253874E+01      0.3256009432E+01
          0                 5           2             4    7     1      -0.9628787532E-03       5    8    1        -0.5462463724E-01      0.1337933383E+00
          0                 6           1             4    7     1       0.1579329408E-04       5    8    1         0.9209814937E-03      0.2255796086E-02

    ------------------------------------------------
       NWT REQUIRED            6 OUTER ITERATIONS 
       AND A TOTAL OF         11 INNER ITERATIONS.
    ------------------------------------------------

 NO OUTPUT CONTROL FOR STRESS PERIOD   30   TIME STEP   27
 
 SOLVING FOR HEAD 
                                                   Max.-Head-Change                         Max.-Flux-Residual
  Residual-Control   Outer-Iter.   Inner-Iter.     Column Row Layer    Maximum-Head-Change  Column Row Layer    Maximum-Flux-Residual          L2-NORM 
          0                 1           2             4    7     1       0.2103113194E-01       5    7    1         0.1111856851E+01      0.2762731505E+01
          0                 2           2             4    7     1      -0.2050005641E-02       5    7    1        -0.1114137940E+00      0.2766132281E+00
          0                 3           2             4    7     1      -0.2300722516E-01       5    8    1        -0.1235256749E+01      0.3039010680E+01
          0                 4           2             4    7     1       0.2409217898E-01       5    8    1         0.1329296793E+01      0.3256102760E+01
          0                 5           2             4    7     1      -0.9629003728E-03       5    8    1        -0.5462639042E-01      0.1337971488E+00
          0                 6           1             4    7     1       0.1579356012E-04       5    8    1         0.9210037058E-03      0.2255843371E-02

    ------------------------------------------------
       NWT REQUIRED            6 OUTER ITERATIONS 
       AND A TOTAL OF         11 INNER ITERATIONS.
    ------------------------------------------------

 NO OUTPUT CONTROL FOR STRESS PERIOD   30   TIME STEP   28
 
 SOLVING FOR HEAD 
                                                   Max.-Head-Change                         Max.-Flux-Residual
  Residual-Control   Outer-Iter.   Inner-Iter.     Column Row Layer    Maximum-Head-Change  Column Row Layer    Maximum-Flux-Residual          L2-NORM 
          0                 1           2             4    7     1       0.2088894562E-01       4    7    1         0.1092752319E+01      0.2702022269E+01
          0                 2           2             4    7     1      -0.2036175280E-02       4    7    1        -0.1095033939E+00      0.2705489072E+00
          0                 3           2             4    7     1      -0.2300864478E-01       5    8    1        -0.1235500678E+01      0.3039450693E+01
          0                 4           2             4    7     1       0.2409271487E-01       5    8    1         0.1329338223E+01      0.3256193517E+01
          0                 5           2             4    7     1      -0.9629217009E-03       5    8    1        -0.5462808292E-01      0.1338008476E+00
          0                 6           1             4    7     1       0.1579382291E-04       5    8    1         0.9210251183E-03      0.2255885715E-02

    ------------------------------------------------
       NWT REQUIRED            6 OUTER ITERATIONS 
       AND A TOTAL OF         11 INNER ITERATIONS.
    ------------------------------------------------

 NO OUTPUT CONTROL FOR STRESS PERIOD   30   TIME STEP   29
 
 SOLVING FOR HEAD 
                                                   Max.-Head-Change                         Max.-Flux-Residual
  Residual-Control   Outer-Iter.   Inner-Iter.     Column Row Layer    Maximum-Head-Change  Column Row Layer    Maximum-Flux-Residual          L2-NORM 
          0                 1           2             4    7     1       0.2073755903E-01       4    7    1         0.1085372777E+01      0.2644213122E+01
          0                 2           2             4    7     1      -0.2021449927E-02       4    7    1        -0.1087654699E+00      0.2647734740E+00
          0                 3           2             4    7     1      -0.2301011764E-01       5    8    1        -0.1235732700E+01      0.3039876494E+01
          0                 4           2             4    7     1       0.2409324667E-01       5    8    1         0.1329378427E+01      0.3256282335E+01
          0                 5           2             4    7     1      -0.9629442671E-03       5    8    1        -0.5462980491E-01      0.1338046150E+00
          0                 6           1             4    7     1       0.1579410071E-04       5    8    1         0.9210469357E-03      0.2255977554E-02

    ------------------------------------------------
       NWT REQUIRED            6 OUTER ITERATIONS 
       AND A TOTAL OF         11 INNER ITERATIONS.
    ------------------------------------------------

 NO OUTPUT CONTROL FOR STRESS PERIOD   30   TIME STEP   30



 STREAM LISTING     PERIOD     30   STEP       30

 LAYER ROW COL. STREAM  RCH.  FLOW INTO     FLOW TO   FLOW OUT OF   OVRLND.     DIRECT     STREAM       STREAM     STREAM     STREAM   STREAMBED  STREAMBED
                SEG.NO.  NO.  STRM. RCH.    AQUIFER    STRM. RCH.    RUNOFF     PRECIP       ET          HEAD       DEPTH      WIDTH   CONDCTNC.   GRADIENT

   1    1    1     1     1    7.4248E+01  4.1988E-01   7.3828E+01  0.000E+00  0.000E+00  0.000E+00  1.09474E+03  1.690E+00  1.990E+01  8.954E-02  1.563E+00
   1    2    2     1     2    7.3828E+01  6.5043E-01   7.3177E+01  0.000E+00  0.000E+00  0.000E+00  1.08974E+03  1.684E+00  1.984E+01  1.389E-01  1.561E+00
   1    3    3     1     3    7.3177E+01  5.5489E-01   7.2623E+01  0.000E+00  0.000E+00  0.000E+00  1.08410E+03  1.677E+00  1.977E+01  1.186E-01  1.559E+00
   1    3    4     1     4    7.2623E+01  5.1112E-01   7.2111E+01  0.000E+00  0.000E+00  0.000E+00  1.07908E+03  1.671E+00  1.972E+01  1.094E-01  1.557E+00
   1    4    5     2     1    7.0111E+01  4.0856E-01   6.9703E+01  0.000E+00  0.000E+00  0.000E+00  1.07417E+03  2.238E+00  1.200E+01  7.800E-02  1.746E+00
   1    5    6     2     2    6.9703E+01  3.1386E-01   6.9389E+01  0.000E+00  0.000E+00  0.000E+00  1.06874E+03  2.231E+00  1.200E+01  6.000E-02  1.744E+00
   1    6    6     2     3    6.9389E+01  3.1350E-01   6.9075E+01  0.000E+00  0.000E+00  0.000E+00  1.06402E+03  2.225E+00  1.200E+01  6.000E-02  1.742E+00
   1    7    6     2     4    6.9075E+01  3.1314E-01   6.8762E+01  0.000E+00  0.000E+00  0.000E+00  1.05929E+03  2.219E+00  1.200E+01  6.000E-02  1.740E+00
   1    8    6     2     5    6.8762E+01  3.1277E-01   6.8450E+01  0.000E+00  0.000E+00  0.000E+00  1.05457E+03  2.213E+00  1.200E+01  6.000E-02  1.738E+00
   1    3    5     3     1    2.0000E+00  2.8252E-01   1.7175E+00  0.000E+00  0.000E+00  0.000E+00  1.07555E+03  1.909E+00  9.636E+00  7.227E-02  1.955E+00
   1    3    6     3     2    1.7175E+00  2.4905E-01   1.4684E+00  0.000E+00  0.000E+00  0.000E+00  1.07264E+03  1.727E+00  8.909E+00  6.682E-02  1.864E+00
   1    3    7     3     3    1.4684E+00  1.9718E-01   1.2712E+00  0.000E+00  0.000E+00  0.000E+00  1.06987E+03  1.555E+00  8.218E+00  5.547E-02  1.777E+00
   1    4    8     3     4    1.2712E+00  2.2567E-01   1.0456E+00  0.000E+00  0.000E+00  0.000E+00  1.06682E+03  1.364E+00  7.455E+00  6.709E-02  1.682E+00
   1    5    8     3     5    1.0456E+00  1.5790E-01   8.8768E-01  0.000E+00  0.000E+00  0.000E+00  1.06362E+03  1.164E+00  6.655E+00  4.991E-02  1.582E+00
   1    6    8     3     6    8.8768E-01  5.5980E-02   8.3170E-01  0.000E+00  0.000E+00  0.000E+00  1.06158E+03  1.036E+00  6.145E+00  1.844E-02  1.518E+00
   1    5   10     4     1    1.0000E+01  9.0919E-02   9.9091E+00  0.000E+00  0.000E+00  0.000E+00  1.07836E+03  6.368E-01  1.000E+01  2.500E-02  1.212E+00
   1    5    9     4     2    9.9091E+00  1.8158E-01   9.7275E+00  0.000E+00  0.000E+00  0.000E+00  1.07154E+03  6.315E-01  1.000E+01  5.000E-02  1.211E+00
   1    6    8     4     3    9.7275E+00  1.2689E-01   9.6006E+00  0.000E+00  0.000E+00  0.000E+00  1.06381E+03  6.256E-01  1.000E+01  3.500E-02  1.209E+00
   1    6    8     5     1    1.0432E+01  2.2686E-01   1.0205E+01  0.000E+00  0.000E+00  0.000E+00  1.05868E+03  6.790E-01  1.542E+01  6.166E-02  1.226E+00
   1    7    7     5     2    1.0205E+01  2.7894E-01   9.9265E+00  0.000E+00  0.000E+00  0.000E+00  1.05417E+03  6.732E-01  1.519E+01  7.594E-02  1.224E+00
   1    8    7     5     3    9.9265E+00  1.9221E-01   9.7343E+00  0.000E+00  0.000E+00  0.000E+00  1.04992E+03  6.676E-01  1.497E+01  5.241E-02  1.223E+00
   1    8    6     5     4    9.7343E+00  1.3577E-01   9.5985E+00  0.000E+00  0.000E+00  0.000E+00  1.04691E+03  6.637E-01  1.482E+01  3.706E-02  1.221E+00
   1    9    6     6     1    7.0588E+01  3.1639E-01   7.0272E+01  0.000E+00  0.000E+00  0.000E+00  1.04500E+03  2.273E+00  1.200E+01  6.000E-02  1.758E+00
   1   10    7     6     2    7.0272E+01  3.1602E-01   6.9956E+01  0.000E+00  0.000E+00  0.000E+00  1.04045E+03  2.267E+00  1.200E+01  6.000E-02  1.756E+00
   1   11    7     6     3    6.9956E+01  3.1565E-01   6.9640E+01  0.000E+00  0.000E+00  0.000E+00  1.03590E+03  2.261E+00  1.200E+01  6.000E-02  1.754E+00
   1   12    7     6     4    6.9640E+01  3.1528E-01   6.9325E+01  0.000E+00  0.000E+00  0.000E+00  1.03135E+03  2.255E+00  1.200E+01  6.000E-02  1.752E+00
   1   13    7     6     5    6.9325E+01  2.7008E-02   6.9298E+01  0.000E+00  0.000E+00  0.000E+00  1.02816E+03  2.251E+00  1.200E+01  2.400E-02  3.751E-01
   1   14    9     7     1    1.5000E+02  1.3413E+00   1.4866E+02  0.000E+00  0.000E+00  0.000E+00  1.03987E+03  2.288E+00  5.529E+01  5.593E-01  7.994E-01
   1   13    8     7     2    1.4866E+02  1.8494E+00   1.4681E+02  0.000E+00  0.000E+00  0.000E+00  1.03478E+03  2.279E+00  5.526E+01  6.148E-01  1.003E+00
   1   13    7     7     3    1.4681E+02  1.4824E+00   1.4533E+02  0.000E+00  0.000E+00  0.000E+00  1.02969E+03  2.270E+00  5.522E+01  5.584E-01  8.848E-01
   1   13    6     8     1    2.1462E+02  1.1207E+00   2.1350E+02  0.000E+00  0.000E+00  0.000E+00  1.02509E+03  3.219E+00  4.667E+01  4.756E-01  7.854E-01
   1   13    5     8     2    2.1350E+02  3.0167E-01   2.1320E+02  0.000E+00  0.000E+00  0.000E+00  1.01884E+03  3.215E+00  4.661E+01  4.750E-01  2.117E-01
   1   13    4     8     3    2.1320E+02 -2.0790E+00   2.1528E+02  0.000E+00  0.000E+00  0.000E+00  1.01259E+03  3.220E+00  4.669E+01  4.757E+00 -1.457E-01
   1   13    3     8     4    2.1528E+02 -3.3707E+00   2.1865E+02  0.000E+00  0.000E+00  0.000E+00  1.00636E+03  3.235E+00  4.691E+01  4.780E+00 -2.351E-01
   1   13    2     8     5    2.1865E+02 -2.4344E+00   2.2109E+02  0.000E+00  0.000E+00  0.000E+00  1.00013E+03  3.251E+00  4.714E+01  4.804E+00 -1.689E-01
   1   13    1     8     6    2.2109E+02 -1.8641E+00   2.2295E+02  0.000E+00  0.000E+00  0.000E+00  9.95138E+02  3.263E+00  4.731E+01  2.893E+00 -2.148E-01
   1    8    6     9     1    7.4598E+00  0.0000E+00   7.4598E+00  0.000E+00  0.000E+00  0.000E+00  1.08065E+03  1.901E+00  4.000E+00  0.000E+00  1.634E+00
   1    8    5     9     2    7.4598E+00  0.0000E+00   7.4598E+00  0.000E+00  0.000E+00  0.000E+00  1.08015E+03  1.901E+00  4.000E+00  0.000E+00  1.634E+00





UNSATURATED ZONE PACKAGE VOLUMETRIC BUDGET FOR  TIME STEP    30 STRESS PERIOD   30
  ------------------------------------------------------------------------------



     CUMULATIVE VOLUMES      L**3       RATES FOR THIS TIME STEP      L**3/T
     ------------------                 ------------------------

           IN:                                      IN:
           ---                                      ---
        INFILTRATION =  1115256032.9749          INFILTRATION =           8.3075

          OUT:                                     OUT:
          ----                                     ----
              UZF ET =   892038986.5909                UZF ET =           8.3175
        UZF RECHARGE =       73224.0000          UZF RECHARGE =       0.0000E+00

            IN - OUT =   223143822.3840              IN - OUT =      -1.0017E-02

          STORAGE:                                 STORAGE:
          --------                                 --------
      STORAGE CHANGE =   223298892.5553        STORAGE CHANGE =      -1.0017E-02

 PERCENT DISCREPANCY IS DIFFERENCE BETWEEN IN-OUT MINUS CHANGE IN STORAGE
 DIVIDED BY THE AVERAGE OF IN AND OUT TIMES 100

 PERCENT DISCREPANCY =          -0.00     PERCENT DISCREPANCY =           0.00






1
  VOLUMETRIC BUDGET FOR AGRICULTURAL FIELDS AT  END OF TIME STEP   30, STRESS PERIOD  30
  ------------------------------------------------------------------------------

     CUMULATIVE VOLUMES      L**3       RATES FOR THIS TIME STEP      L**3/T
     ------------------                 ------------------------

           IN:                                      IN:
           ---                                      ---
           AG WELLS      =   416075776.0000             AG WELLS      =           0.0000
      DIVERSION SEGMENTS =   634509504.0000        DIVERSION SEGMENTS =           7.4598
           GW IRRIGATION =           0.0000             GW IRRIGATION =           0.0000
           SW IRRIGATION =           0.0000             SW IRRIGATION =           0.0000
        SYSTEM LOSSES GW =           0.0000          SYSTEM LOSSES GW =           0.0000
        SYSTEM LOSSES SW =           0.0000          SYSTEM LOSSES SW =           0.0000

                TOTAL IN =  1050585280.0000                  TOTAL IN =           7.4598

          OUT:                                     OUT:
          ----                                     ----
           AG WELLS      =           0.0000             AG WELLS      =           0.0000
      DIVERSION SEGMENTS =           0.0000        DIVERSION SEGMENTS =           0.0000
           GW IRRIGATION =   416075776.0000             GW IRRIGATION =           0.0000
           SW IRRIGATION =   634522816.0000             SW IRRIGATION =           7.4600
        SYSTEM LOSSES GW =           0.0000          SYSTEM LOSSES GW =           0.0000
        SYSTEM LOSSES SW =           0.0000          SYSTEM LOSSES SW =           0.0000

               TOTAL OUT =  1050598592.0000                 TOTAL OUT =           7.4600

                IN - OUT =      -13312.0000                  IN - OUT =      -1.4877E-04

     PERCENT DISCREPANCY =          -0.00         PERCENT DISCREPANCY =          -0.00



1
  VOLUMETRIC BUDGET FOR ENTIRE MODEL AT END OF TIME STEP   30, STRESS PERIOD  30
  ------------------------------------------------------------------------------

     CUMULATIVE VOLUMES      L**3       RATES FOR THIS TIME STEP      L**3/T
     ------------------                 ------------------------

           IN:                                      IN:
           ---                                      ---
             STORAGE     =   684190848.0000               STORAGE     =           3.7119
       CONSTANT HEAD     =           0.0000         CONSTANT HEAD     =           0.0000
     HEAD DEP BOUNDS     =    21825128.0000       HEAD DEP BOUNDS     =           0.2861
      STREAM LEAKAGE     =   912712832.0000        STREAM LEAKAGE     =          13.5855
        UZF RECHARGE     =       73223.9531          UZF RECHARGE     =           0.0000
               GW ET     =           0.0000                 GW ET     =           0.0000
     SURFACE LEAKAGE     =           0.0000       SURFACE LEAKAGE     =           0.0000
           AG WELLS      =           0.0000             AG WELLS      =           0.0000

                TOTAL IN =  1618802048.0000                  TOTAL IN =          17.5835

          OUT:                                     OUT:
          ----                                     ----
             STORAGE     =   359776640.0000               STORAGE     =           7.2982
       CONSTANT HEAD     =           0.0000         CONSTANT HEAD     =           0.0000
     HEAD DEP BOUNDS     =    22201780.0000       HEAD DEP BOUNDS     =           0.2957
      STREAM LEAKAGE     =   818166464.0000        STREAM LEAKAGE     =           9.7482
        UZF RECHARGE     =           0.0000          UZF RECHARGE     =           0.0000
               GW ET     =     2590449.5000                 GW ET     =           0.2412
     SURFACE LEAKAGE     =           0.0000       SURFACE LEAKAGE     =           0.0000
           AG WELLS      =   416075776.0000             AG WELLS      =           0.0000

               TOTAL OUT =  1618811136.0000                 TOTAL OUT =          17.5834

                IN - OUT =       -9088.0000                  IN - OUT =       8.3923E-05

     PERCENT DISCREPANCY =          -0.00         PERCENT DISCREPANCY =           0.00






         TIME SUMMARY AT END OF TIME STEP   30 IN STRESS PERIOD   30
                    SECONDS     MINUTES      HOURS       DAYS        YEARS
                    -----------------------------------------------------------
   TIME STEP LENGTH  87667.      1461.1      24.352      1.0147     2.77799E-03
 STRESS PERIOD TIME 2.63000E+06  43833.      730.56      30.440     8.33397E-02
         TOTAL TIME 7.63565E+07 1.27261E+06  21210.      883.76      2.4196    
1
1
                            STRESS PERIOD NO.   31, LENGTH =   2630000.    
                            -----------------------------------------------

                              NUMBER OF TIME STEPS =    30

                               MULTIPLIER FOR DELT =     1.000

                            INITIAL TIME STEP SIZE =   87666.66    

 REUSING NON-PARAMETER GHB CELLS FROM LAST STRESS PERIOD

      2 GHB CELLS

 REUSING STREAM SEGMENT DATA FROM LAST STRESS PERIOD



            AREAL INFILTRATION RATE
 READING ON UNIT   19 WITH FORMAT: (FREE)              

            1           2           3           4           5           6           7           8           9          10
 ........................................................................................................................
   1   1.0000E-10  2.0000E-10   0.000       0.000       0.000       0.000       0.000       0.000       0.000       0.000    
   2   2.0000E-10  1.0000E-10  2.0000E-10   0.000       0.000      8.0000E-10  8.0000E-10  5.0000E-10   0.000       0.000    
   3    0.000      5.0000E-10  1.0000E-10  1.0000E-10  8.0000E-10  8.0000E-10  5.0000E-10  5.0000E-10   0.000       0.000    
   4   8.0000E-10  5.0000E-10  1.0000E-10  1.0000E-10  1.0000E-10  1.0000E-10  1.0000E-10  1.0000E-10  2.0000E-10   0.000    
   5   8.0000E-10  5.0000E-10  1.0000E-10  1.0000E-10  1.0000E-10  1.0000E-10  1.0000E-10  1.0000E-10  1.0000E-10  1.0000E-10
   6   8.0000E-10  5.0000E-10  5.0000E-10  2.0000E-10  2.0000E-10  1.0000E-10  1.0000E-10  1.0000E-10  1.0000E-10  5.0000E-10
   7   8.0000E-10  5.0000E-10  5.0000E-10  2.0000E-10  2.0000E-10  1.0000E-10  1.0000E-10  2.0000E-10  2.0000E-10   0.000    
   8    0.000      5.0000E-10  5.0000E-10  2.0000E-10  2.0000E-10  1.0000E-10  1.0000E-10  2.0000E-10  5.0000E-10   0.000    
   9    0.000      5.0000E-10  5.0000E-10  2.0000E-10  2.0000E-10  1.0000E-10  1.0000E-10  2.0000E-10  5.0000E-10   0.000    
  10    0.000      5.0000E-10  5.0000E-10  2.0000E-10  2.0000E-10  1.0000E-10  1.0000E-10  2.0000E-10  5.0000E-10  8.0000E-10
  11    0.000      1.0000E-10  1.0000E-10  1.0000E-10  1.0000E-10  1.0000E-10  1.0000E-10  2.0000E-10  5.0000E-10   0.000    
  12   1.0000E-10  1.0000E-10  1.0000E-10  1.0000E-10  1.0000E-10  1.0000E-10  1.0000E-10  1.0000E-10  2.0000E-10   0.000    
  13   1.0000E-10  1.0000E-10  2.0000E-10  2.0000E-10  2.0000E-10  2.0000E-10  2.0000E-10  1.0000E-10  1.0000E-10   0.000    
  14    0.000      2.0000E-10  5.0000E-10  5.0000E-10  5.0000E-10  5.0000E-10  5.0000E-10  2.0000E-10  1.0000E-10   0.000    
  15    0.000       0.000      8.0000E-10  8.0000E-10  8.0000E-10  8.0000E-10   0.000       0.000       0.000       0.000    

                  ET RATE =  1.500000E-07

 USING ET EXTINCTION DEPTH FROM PREVIOUS STRESS PERIOD. CURRENT PERIOD IS:      31

 USING EXTINCTION WATER CONTENT FROM PREVIOUS STRESS PERIOD. CURRENT PERIOD IS:      31

 USING AIR ENTRY PRESSURE FROM PREVIOUS STRESS PERIOD. CURRENT PERIOD IS:      31

 USING ROOT PRESSURE HEAD FROM PREVIOUS STRESS PERIOD. CURRENT PERIOD IS:      31

 USING ROOT ACTIVITY FROM PREVIOUS STRESS PERIOD. CURRENT PERIOD IS:      31

 PROCESSING AG STRESS PERIOD DATA

 READING AG STRESS PERIOD DATA

 READING IRRIGATION SEGMENT

 READING IRRIGATION WELL

 READING SUPPLEMENTAL WELL

 END PROCESSING AG STRESS PERIOD DATA OPTIONS
 
 SOLVING FOR HEAD 
                                                   Max.-Head-Change                         Max.-Flux-Residual
  Residual-Control   Outer-Iter.   Inner-Iter.     Column Row Layer    Maximum-Head-Change  Column Row Layer    Maximum-Flux-Residual          L2-NORM 
          0                 1           2             4    7     1       0.2057749890E-01       4    7    1         0.1077494135E+01      0.2742996664E+01
          0                 2           2             4    7     1      -0.7758258846E-01       4    7    1        -0.4164460346E+01      0.1021747449E+02
          0                 3           2             4    7     1       0.7880856469E-01       4    7    1         0.4348218646E+01      0.1065001041E+02
          0                 4           2             4    7     1      -0.3135905428E-02       4    7    1        -0.1778400116E+00      0.4355704526E+00
          0                 5           1             4    7     1       0.3866701010E-04       4    7    1         0.2253463525E-02      0.5532336769E-02

    ------------------------------------------------
       NWT REQUIRED            5 OUTER ITERATIONS 
       AND A TOTAL OF          9 INNER ITERATIONS.
    ------------------------------------------------

 NO OUTPUT CONTROL FOR STRESS PERIOD   31   TIME STEP    1
 
 SOLVING FOR HEAD 
                                                   Max.-Head-Change                         Max.-Flux-Residual
  Residual-Control   Outer-Iter.   Inner-Iter.     Column Row Layer    Maximum-Head-Change  Column Row Layer    Maximum-Flux-Residual          L2-NORM 
          0                 1           2             4    7     1       0.2041005391E-01       4    7    1         0.1069187985E+01      0.2502972587E+01
          0                 2           2             4    7     1      -0.1985345723E-02       4    7    1        -0.1069190562E+00      0.2502964134E+00
          0                 3           2             4    7     1       0.1351950331E-03       4    7    1         0.7484356170E-02      0.1752064934E-01
          0                 4           1             4    7     1      -0.5379536989E-05       4    7    1        -0.3061106033E-03      0.7165500198E-03

    ------------------------------------------------
       NWT REQUIRED            4 OUTER ITERATIONS 
       AND A TOTAL OF          7 INNER ITERATIONS.
    ------------------------------------------------

 NO OUTPUT CONTROL FOR STRESS PERIOD   31   TIME STEP    2
 
 SOLVING FOR HEAD 
                                                   Max.-Head-Change                         Max.-Flux-Residual
  Residual-Control   Outer-Iter.   Inner-Iter.     Column Row Layer    Maximum-Head-Change  Column Row Layer    Maximum-Flux-Residual          L2-NORM 
          0                 1           2             4    7     1       0.2023578420E-01       4    7    1         0.1060483898E+01      0.2450797607E+01
          0                 2           2             4    7     1      -0.7174180720E-01       4    7    1        -0.3851048771E+01      0.9450895446E+01
          0                 3           2             4    7     1       0.7276122419E-01       4    7    1         0.4014569583E+01      0.9832337942E+01
          0                 4           2             4    7     1      -0.2895270371E-02       4    7    1        -0.1641937604E+00      0.4021236320E+00
          0                 5           1             4    7     1       0.3569988507E-04       4    7    1         0.2080547387E-02      0.5107056030E-02

    ------------------------------------------------
       NWT REQUIRED            5 OUTER ITERATIONS 
       AND A TOTAL OF          9 INNER ITERATIONS.
    ------------------------------------------------

 NO OUTPUT CONTROL FOR STRESS PERIOD   31   TIME STEP    3
 
 SOLVING FOR HEAD 
                                                   Max.-Head-Change                         Max.-Flux-Residual
  Residual-Control   Outer-Iter.   Inner-Iter.     Column Row Layer    Maximum-Head-Change  Column Row Layer    Maximum-Flux-Residual          L2-NORM 
          0                 1           2             4    7     1       0.2005548713E-01       4    7    1         0.1051426311E+01      0.2402123673E+01
          0                 2           2             4    7     1      -0.1950856196E-02       4    7    1        -0.1051429057E+00      0.2401997044E+00
          0                 3           2             4    7     1      -0.6954802585E-01       5    8    1        -0.3734060600E+01      0.9186071077E+01
          0                 4           2             4    7     1       0.7252609972E-01       5    6    1         0.4001661123E+01      0.9802038830E+01
          0                 5           2             4    7     1      -0.2886598611E-02       5    8    1        -0.1637661808E+00      0.4011038059E+00
          0                 6           1             4    7     1       0.3561938409E-04       5    8    1         0.2077534002E-02      0.5088656746E-02

    ------------------------------------------------
       NWT REQUIRED            6 OUTER ITERATIONS 
       AND A TOTAL OF         11 INNER ITERATIONS.
    ------------------------------------------------

 NO OUTPUT CONTROL FOR STRESS PERIOD   31   TIME STEP    4
 
 SOLVING FOR HEAD 
                                                   Max.-Head-Change                         Max.-Flux-Residual
  Residual-Control   Outer-Iter.   Inner-Iter.     Column Row Layer    Maximum-Head-Change  Column Row Layer    Maximum-Flux-Residual          L2-NORM 
          0                 1           2             4    7     1       0.1987002842E-01       4    7    1         0.1042063392E+01      0.2362700486E+01
          0                 2           2             4    7     1      -0.1932816734E-02       4    7    1        -0.1042066503E+00      0.2362178638E+00
          0                 3           2             4    7     1      -0.6955010866E-01       5    8    1        -0.3734267795E+01      0.9186577692E+01
          0                 4           2             4    7     1       0.7252703969E-01       5    6    1         0.4001720786E+01      0.9802150117E+01
          0                 5           2             4    7     1      -0.2886636023E-02       5    6    1        -0.1637565081E+00      0.4010946370E+00
          0                 6           1             4    7     1       0.3561984582E-04       5    6    1         0.2077399163E-02      0.5088280623E-02

    ------------------------------------------------
       NWT REQUIRED            6 OUTER ITERATIONS 
       AND A TOTAL OF         11 INNER ITERATIONS.
    ------------------------------------------------

 NO OUTPUT CONTROL FOR STRESS PERIOD   31   TIME STEP    5
 
 SOLVING FOR HEAD 
                                                   Max.-Head-Change                         Max.-Flux-Residual
  Residual-Control   Outer-Iter.   Inner-Iter.     Column Row Layer    Maximum-Head-Change  Column Row Layer    Maximum-Flux-Residual          L2-NORM 
          0                 1           2             4    7     1       0.1967994752E-01       4    7    1         0.1032425490E+01      0.2327757452E+01
          0                 2           2             4    7     1      -0.1914327231E-02       4    7    1        -0.1032428732E+00      0.2340164986E+00
          0                 3           2             4    7     1      -0.6955221358E-01       5    8    1        -0.3734466645E+01      0.9187029261E+01
          0                 4           2             4    7     1       0.7252797164E-01       5    6    1         0.4001779397E+01      0.9802286655E+01
          0                 5           2             4    7     1      -0.2886673116E-02       5    6    1        -0.1637589026E+00      0.4011013738E+00
          0                 6           1             4    7     1       0.3562030385E-04       5    6    1         0.2077429473E-02      0.5088519964E-02

    ------------------------------------------------
       NWT REQUIRED            6 OUTER ITERATIONS 
       AND A TOTAL OF         11 INNER ITERATIONS.
    ------------------------------------------------

 NO OUTPUT CONTROL FOR STRESS PERIOD   31   TIME STEP    6
 
 SOLVING FOR HEAD 
                                                   Max.-Head-Change                         Max.-Flux-Residual
  Residual-Control   Outer-Iter.   Inner-Iter.     Column Row Layer    Maximum-Head-Change  Column Row Layer    Maximum-Flux-Residual          L2-NORM 
          0                 1           2             4    7     1       0.1948587427E-01       4    7    1         0.1022547931E+01      0.2294705622E+01
          0                 2           2             4    7     1      -0.1895449351E-02       4    7    1        -0.1022551282E+00      0.2293094175E+00
          0                 3           2             4    7     1      -0.6955432711E-01       5    8    1        -0.3734657252E+01      0.9187552724E+01
          0                 4           2             4    7     1       0.7252888611E-01       5    6    1         0.4001813870E+01      0.9802462482E+01
          0                 5           2             4    7     1      -0.2886709512E-02       5    8    1        -0.1637467686E+00      0.4010945021E+00
          0                 6           1             4    7     1       0.3562075248E-04       5    8    1         0.2076977897E-02      0.5088040561E-02

    ------------------------------------------------
       NWT REQUIRED            6 OUTER ITERATIONS 
       AND A TOTAL OF         11 INNER ITERATIONS.
    ------------------------------------------------

 NO OUTPUT CONTROL FOR STRESS PERIOD   31   TIME STEP    7
 
 SOLVING FOR HEAD 
                                                   Max.-Head-Change                         Max.-Flux-Residual
  Residual-Control   Outer-Iter.   Inner-Iter.     Column Row Layer    Maximum-Head-Change  Column Row Layer    Maximum-Flux-Residual          L2-NORM 
          0                 1           2             4    7     1       0.1928839944E-01       4    7    1         0.1012463370E+01      0.2264141399E+01
          0                 2           2             4    7     1      -0.1876240562E-02       4    7    1        -0.1012466812E+00      0.2261978180E+00
          0                 3           2             4    7     1      -0.6955644976E-01       5    8    1        -0.3734840194E+01      0.9188017000E+01
          0                 4           2             4    7     1       0.7252978754E-01       5    6    1         0.4001847174E+01      0.9802576474E+01
          0                 5           2             4    7     1      -0.2886745390E-02       4    8    1        -0.1637455177E+00      0.4010740330E+00
          0                 6           1             4    7     1       0.3562119550E-04       4    6    1         0.2077003498E-02      0.5087325517E-02

    ------------------------------------------------
       NWT REQUIRED            6 OUTER ITERATIONS 
       AND A TOTAL OF         11 INNER ITERATIONS.
    ------------------------------------------------

 NO OUTPUT CONTROL FOR STRESS PERIOD   31   TIME STEP    8
 
 SOLVING FOR HEAD 
                                                   Max.-Head-Change                         Max.-Flux-Residual
  Residual-Control   Outer-Iter.   Inner-Iter.     Column Row Layer    Maximum-Head-Change  Column Row Layer    Maximum-Flux-Residual          L2-NORM 
          0                 1           2             4    7     1       0.1908819089E-01       4    7    1         0.1002209799E+01      0.2235422106E+01
          0                 2           2             4    7     1      -0.1856765833E-02       4    7    1        -0.1002213315E+00      0.2232705649E+00
          0                 3           2             4    7     1      -0.6955857706E-01       5    8    1        -0.3735015955E+01      0.9188462730E+01
          0                 4           2             4    7     1       0.7253067570E-01       5    6    1         0.4001901839E+01      0.9802687537E+01
          0                 5           2             4    7     1      -0.2886780741E-02       4    8    1        -0.1637476735E+00      0.4010522985E+00
          0                 6           1             4    7     1       0.3562163191E-04       4    8    1         0.2076963653E-02      0.5086563745E-02

    ------------------------------------------------
       NWT REQUIRED            6 OUTER ITERATIONS 
       AND A TOTAL OF         11 INNER ITERATIONS.
    ------------------------------------------------

 NO OUTPUT CONTROL FOR STRESS PERIOD   31   TIME STEP    9
 
 SOLVING FOR HEAD 
                                                   Max.-Head-Change                         Max.-Flux-Residual
  Residual-Control   Outer-Iter.   Inner-Iter.     Column Row Layer    Maximum-Head-Change  Column Row Layer    Maximum-Flux-Residual          L2-NORM 
          0                 1           2             4    7     1       0.1888548040E-01       4    7    1         0.9917997636E+00      0.2208154981E+01
          0                 2           2             4    7     1      -0.1837047712E-02       4    7    1        -0.9918033388E-01      0.2204884376E+00
          0                 3           2             4    7     1      -0.6956071193E-01       5    8    1        -0.3735185112E+01      0.9188893907E+01
          0                 4           2             4    7     1       0.7253155516E-01       5    6    1         0.4001955567E+01      0.9802808526E+01
          0                 5           2             4    7     1      -0.2886815744E-02       4    8    1        -0.1637311885E+00      0.4010471217E+00
          0                 6           1             4    7     1       0.3562206340E-04       4    8    1         0.2076538100E-02      0.5086316172E-02

    ------------------------------------------------
       NWT REQUIRED            6 OUTER ITERATIONS 
       AND A TOTAL OF         11 INNER ITERATIONS.
    ------------------------------------------------

 NO OUTPUT CONTROL FOR STRESS PERIOD   31   TIME STEP   10
 
 SOLVING FOR HEAD 
                                                   Max.-Head-Change                         Max.-Flux-Residual
  Residual-Control   Outer-Iter.   Inner-Iter.     Column Row Layer    Maximum-Head-Change  Column Row Layer    Maximum-Flux-Residual          L2-NORM 
          0                 1           2             4    7     1       0.1868086779E-01       4    7    1         0.9812673640E+00      0.2182056062E+01
          0                 2           2             4    7     1      -0.1817144545E-02       4    7    1        -0.9812709843E-01      0.2178274921E+00
          0                 3           2             4    7     1      -0.6956284591E-01       5    8    1        -0.3735347797E+01      0.9189309065E+01
          0                 4           2             4    7     1       0.7253242109E-01       5    6    1         0.4002008120E+01      0.9802934375E+01
          0                 5           2             4    7     1      -0.2886850209E-02       4    8    1        -0.1637332750E+00      0.4010522682E+00
          0                 6           1             4    7     1       0.3562248884E-04       4    8    1         0.2076564547E-02      0.5086380614E-02

    ------------------------------------------------
       NWT REQUIRED            6 OUTER ITERATIONS 
       AND A TOTAL OF         11 INNER ITERATIONS.
    ------------------------------------------------

 NO OUTPUT CONTROL FOR STRESS PERIOD   31   TIME STEP   11
 
 SOLVING FOR HEAD 
                                                   Max.-Head-Change                         Max.-Flux-Residual
  Residual-Control   Outer-Iter.   Inner-Iter.     Column Row Layer    Maximum-Head-Change  Column Row Layer    Maximum-Flux-Residual          L2-NORM 
          0                 1           2             4    7     1       0.1847478426E-01       4    7    1         0.9706363386E+00      0.2156943306E+01
          0                 2           2             4    7     1      -0.1797098280E-02       4    7    1        -0.9706399914E-01      0.2152611460E+00
          0                 3           2             4    7     1      -0.6956497614E-01       5    8    1        -0.3735504357E+01      0.9189709576E+01
          0                 4           2             4    7     1       0.7253327338E-01       5    6    1         0.4002059521E+01      0.9803057779E+01
          0                 5           2             4    7     1      -0.2886884131E-02       4    8    1        -0.1637353219E+00      0.4010573116E+00
          0                 6           1             4    7     1       0.3562290777E-04       4    8    1         0.2076590495E-02      0.5086437286E-02

    ------------------------------------------------
       NWT REQUIRED            6 OUTER ITERATIONS 
       AND A TOTAL OF         11 INNER ITERATIONS.
    ------------------------------------------------

 NO OUTPUT CONTROL FOR STRESS PERIOD   31   TIME STEP   12
 
 SOLVING FOR HEAD 
                                                   Max.-Head-Change                         Max.-Flux-Residual
  Residual-Control   Outer-Iter.   Inner-Iter.     Column Row Layer    Maximum-Head-Change  Column Row Layer    Maximum-Flux-Residual          L2-NORM 
          0                 1           2             4    7     1       0.1826775488E-01       4    7    1         0.9599364072E+00      0.2132682395E+01
          0                 2           2             4    7     1      -0.1776959994E-02       4    7    1        -0.9599400818E-01      0.2127847336E+00
          0                 3           2             4    7     1      -0.6956709467E-01       5    8    1        -0.3735654876E+01      0.9190095864E+01
          0                 4           2             4    7     1       0.7253410723E-01       5    6    1         0.4002109547E+01      0.9803178143E+01
          0                 5           2             4    7     1      -0.2886917319E-02       4    8    1        -0.1637373196E+00      0.4010622354E+00
          0                 6           1             4    7     1       0.3562331719E-04       4    8    1         0.2076615833E-02      0.5086508841E-02

    ------------------------------------------------
       NWT REQUIRED            6 OUTER ITERATIONS 
       AND A TOTAL OF         11 INNER ITERATIONS.
    ------------------------------------------------

 NO OUTPUT CONTROL FOR STRESS PERIOD   31   TIME STEP   13
 
 SOLVING FOR HEAD 
                                                   Max.-Head-Change                         Max.-Flux-Residual
  Residual-Control   Outer-Iter.   Inner-Iter.     Column Row Layer    Maximum-Head-Change  Column Row Layer    Maximum-Flux-Residual          L2-NORM 
          0                 1           2             4    7     1       0.1805986273E-01       4    7    1         0.9491727087E+00      0.2109189077E+01
          0                 2           2             4    7     1      -0.1756737769E-02       4    7    1        -0.9491763945E-01      0.2103873798E+00
          0                 3           2             4    7     1      -0.6956921428E-01       5    8    1        -0.3735800258E+01      0.9190470331E+01
          0                 4           2             4    7     1       0.7253493648E-01       5    6    1         0.4002158974E+01      0.9803297373E+01
          0                 5           2             4    7     1      -0.2886950324E-02       4    8    1        -0.1637392992E+00      0.4010671136E+00
          0                 6           1             4    7     1       0.3562372403E-04       4    8    1         0.2076640939E-02      0.5086569213E-02

    ------------------------------------------------
       NWT REQUIRED            6 OUTER ITERATIONS 
       AND A TOTAL OF         11 INNER ITERATIONS.
    ------------------------------------------------

 NO OUTPUT CONTROL FOR STRESS PERIOD   31   TIME STEP   14
 
 SOLVING FOR HEAD 
                                                   Max.-Head-Change                         Max.-Flux-Residual
  Residual-Control   Outer-Iter.   Inner-Iter.     Column Row Layer    Maximum-Head-Change  Column Row Layer    Maximum-Flux-Residual          L2-NORM 
          0                 1           2             4    7     1       0.1785158403E-01       4    7    1         0.9383716364E+00      0.2086400499E+01
          0                 2           2             4    7     1      -0.1736477930E-02       4    7    1        -0.9383753245E-01      0.2080691999E+00
          0                 3           2             4    7     1      -0.6957132736E-01       5    8    1        -0.3735940665E+01      0.9190831285E+01
          0                 4           2             4    7     1       0.7253575637E-01       5    6    1         0.4002207568E+01      0.9803414832E+01
          0                 5           2             4    7     1      -0.2886982957E-02       4    8    1        -0.1637412509E+00      0.4010719191E+00
          0                 6           1             4    7     1       0.3562412684E-04       4    8    1         0.2076665672E-02      0.5086631134E-02

    ------------------------------------------------
       NWT REQUIRED            6 OUTER ITERATIONS 
       AND A TOTAL OF         11 INNER ITERATIONS.
    ------------------------------------------------

 NO OUTPUT CONTROL FOR STRESS PERIOD   31   TIME STEP   15
 
 SOLVING FOR HEAD 
                                                   Max.-Head-Change                         Max.-Flux-Residual
  Residual-Control   Outer-Iter.   Inner-Iter.     Column Row Layer    Maximum-Head-Change  Column Row Layer    Maximum-Flux-Residual          L2-NORM 
          0                 1           2             4    7     1       0.1764321797E-01       4    7    1         0.9275505197E+00      0.2064258379E+01
          0                 2           2             4    7     1      -0.1716209582E-02       4    7    1        -0.9275542022E-01      0.2058048903E+00
          0                 3           2             4    7     1      -0.6957342302E-01       5    8    1        -0.3736075826E+01      0.9191183452E+01
          0                 4           2             4    7     1       0.7253655756E-01       5    6    1         0.4002254838E+01      0.9803529470E+01
          0                 5           2             4    7     1      -0.2887014845E-02       4    8    1        -0.1637431539E+00      0.4010766118E+00
          0                 6           1             4    7     1       0.3562452047E-04       4    8    1         0.2076689814E-02      0.5086687381E-02

    ------------------------------------------------
       NWT REQUIRED            6 OUTER ITERATIONS 
       AND A TOTAL OF         11 INNER ITERATIONS.
    ------------------------------------------------

 NO OUTPUT CONTROL FOR STRESS PERIOD   31   TIME STEP   16
 
 SOLVING FOR HEAD 
                                                   Max.-Head-Change                         Max.-Flux-Residual
  Residual-Control   Outer-Iter.   Inner-Iter.     Column Row Layer    Maximum-Head-Change  Column Row Layer    Maximum-Flux-Residual          L2-NORM 
          0                 1           2             4    7     1       0.1743490950E-01       4    7    1         0.9167175087E+00      0.2042730802E+01
          0                 2           2             4    7     1      -0.1695946825E-02       4    7    1        -0.9167211783E-01      0.2036106999E+00
          0                 3           2             4    7     1      -0.6957550920E-01       5    8    1        -0.3736206468E+01      0.9191523439E+01
          0                 4           2             4    7     1       0.7253734925E-01       5    6    1         0.4002301309E+01      0.9803642259E+01
          0                 5           2             4    7     1      -0.2887046355E-02       4    8    1        -0.1637450295E+00      0.4010812209E+00
          0                 6           1             4    7     1       0.3562490916E-04       4    8    1         0.2076713596E-02      0.5086749280E-02

    ------------------------------------------------
       NWT REQUIRED            6 OUTER ITERATIONS 
       AND A TOTAL OF         11 INNER ITERATIONS.
    ------------------------------------------------

 NO OUTPUT CONTROL FOR STRESS PERIOD   31   TIME STEP   17
 
 SOLVING FOR HEAD 
                                                   Max.-Head-Change                         Max.-Flux-Residual
  Residual-Control   Outer-Iter.   Inner-Iter.     Column Row Layer    Maximum-Head-Change  Column Row Layer    Maximum-Flux-Residual          L2-NORM 
          0                 1           2             4    7     1       0.1722719337E-01       4    7    1         0.9059022078E+00      0.2021797826E+01
          0                 2           2             4    7     1      -0.1675741678E-02       4    7    1        -0.9059058583E-01      0.2014779018E+00
          0                 3           2             4    7     1      -0.6957758676E-01       5    8    1        -0.3736333005E+01      0.9191853927E+01
          0                 4           2             4    7     1       0.7253813590E-01       5    6    1         0.4002347254E+01      0.9803752317E+01
          0                 5           2             4    7     1      -0.2887077665E-02       4    8    1        -0.1637468881E+00      0.4010837730E+00
          0                 6           1             4    7     1       0.3562529573E-04       4    8    1         0.2076737160E-02      0.5086748895E-02

    ------------------------------------------------
       NWT REQUIRED            6 OUTER ITERATIONS 
       AND A TOTAL OF         11 INNER ITERATIONS.
    ------------------------------------------------

 NO OUTPUT CONTROL FOR STRESS PERIOD   31   TIME STEP   18
 
 SOLVING FOR HEAD 
                                                   Max.-Head-Change                         Max.-Flux-Residual
  Residual-Control   Outer-Iter.   Inner-Iter.     Column Row Layer    Maximum-Head-Change  Column Row Layer    Maximum-Flux-Residual          L2-NORM 
          0                 1           2             4    7     1       0.1702015776E-01       4    7    1         0.8951102539E+00      0.2001420519E+01
          0                 2           2             4    7     1      -0.1655602719E-02       4    7    1        -0.8951138797E-01      0.1994037953E+00
          0                 3           2             4    7     1      -0.6957964625E-01       5    8    1        -0.3736455236E+01      0.9192174400E+01
          0                 4           2             4    7     1       0.7253890823E-01       5    6    1         0.4002392178E+01      0.9803861761E+01
          0                 5           2             4    7     1      -0.2887108405E-02       4    8    1        -0.1637487094E+00      0.4010882498E+00
          0                 6           1             4    7     1       0.3562567490E-04       4    8    1         0.2076760255E-02      0.5086810127E-02

    ------------------------------------------------
       NWT REQUIRED            6 OUTER ITERATIONS 
       AND A TOTAL OF         11 INNER ITERATIONS.
    ------------------------------------------------

 NO OUTPUT CONTROL FOR STRESS PERIOD   31   TIME STEP   19
 
 SOLVING FOR HEAD 
                                                   Max.-Head-Change                         Max.-Flux-Residual
  Residual-Control   Outer-Iter.   Inner-Iter.     Column Row Layer    Maximum-Head-Change  Column Row Layer    Maximum-Flux-Residual          L2-NORM 
          0                 1           2             4    7     1       0.1681388041E-01       4    7    1         0.8843462187E+00      0.1981584400E+01
          0                 2           2             4    7     1      -0.1635537511E-02       4    7    1        -0.8843498145E-01      0.1973825985E+00
          0                 3           2             4    7     1      -0.6958168714E-01       5    8    1        -0.3736573308E+01      0.9192485621E+01
          0                 4           2             4    7     1       0.7253966625E-01       5    6    1         0.4002436087E+01      0.9803967231E+01
          0                 5           2             4    7     1      -0.2887138587E-02       4    8    1        -0.1637504932E+00      0.4010905787E+00
          0                 6           1             4    7     1       0.3562604702E-04       4    8    1         0.2076782890E-02      0.5086803430E-02

    ------------------------------------------------
       NWT REQUIRED            6 OUTER ITERATIONS 
       AND A TOTAL OF         11 INNER ITERATIONS.
    ------------------------------------------------

 NO OUTPUT CONTROL FOR STRESS PERIOD   31   TIME STEP   20
 
 SOLVING FOR HEAD 
                                                   Max.-Head-Change                         Max.-Flux-Residual
  Residual-Control   Outer-Iter.   Inner-Iter.     Column Row Layer    Maximum-Head-Change  Column Row Layer    Maximum-Flux-Residual          L2-NORM 
          0                 1           2             4    7     1       0.1660882449E-01       4    7    1         0.8736362230E+00      0.1962255944E+01
          0                 2           2             4    7     1      -0.1615591108E-02       4    7    1        -0.8736397848E-01      0.1954174204E+00
          0                 3           2             4    7     1      -0.6958371079E-01       5    8    1        -0.3736687709E+01      0.9192787753E+01
          0                 4           2             4    7     1       0.7254041440E-01       5    6    1         0.4002479265E+01      0.9804071520E+01
          0                 5           2             4    7     1      -0.2887168364E-02       5    8    1        -0.1637512639E+00      0.4010933874E+00
          0                 6           1             4    7     1       0.3562641410E-04       5    8    1         0.2076756297E-02      0.5086815451E-02

    ------------------------------------------------
       NWT REQUIRED            6 OUTER ITERATIONS 
       AND A TOTAL OF         11 INNER ITERATIONS.
    ------------------------------------------------

 NO OUTPUT CONTROL FOR STRESS PERIOD   31   TIME STEP   21
 
 SOLVING FOR HEAD 
                                                   Max.-Head-Change                         Max.-Flux-Residual
  Residual-Control   Outer-Iter.   Inner-Iter.     Column Row Layer    Maximum-Head-Change  Column Row Layer    Maximum-Flux-Residual          L2-NORM 
          0                 1           2             4    7     1       0.1640488897E-01       4    7    1         0.8629748286E+00      0.1943434037E+01
          0                 2           2             4    7     1      -0.1595753684E-02       4    7    1        -0.8629783523E-01      0.1935025520E+00
          0                 3           2             4    7     1      -0.6958571788E-01       5    8    1        -0.3736798560E+01      0.9193081870E+01
          0                 4           2             4    7     1       0.7254115274E-01       5    6    1         0.4002521701E+01      0.9804173211E+01
          0                 5           2             4    7     1      -0.2887197751E-02       5    8    1        -0.1637529958E+00      0.4011164409E+00
          0                 6           1             4    7     1       0.3562677703E-04       5    8    1         0.2076778251E-02      0.5087060437E-02

    ------------------------------------------------
       NWT REQUIRED            6 OUTER ITERATIONS 
       AND A TOTAL OF         11 INNER ITERATIONS.
    ------------------------------------------------

 NO OUTPUT CONTROL FOR STRESS PERIOD   31   TIME STEP   22
 
 SOLVING FOR HEAD 
                                                   Max.-Head-Change                         Max.-Flux-Residual
  Residual-Control   Outer-Iter.   Inner-Iter.     Column Row Layer    Maximum-Head-Change  Column Row Layer    Maximum-Flux-Residual          L2-NORM 
          0                 1           2             4    7     1       0.1620237121E-01       4    7    1         0.8523788884E+00      0.1925089151E+01
          0                 2           2             4    7     1      -0.1576054165E-02       4    7    1        -0.8523823708E-01      0.1916376804E+00
          0                 3           2             4    7     1      -0.6958770643E-01       5    8    1        -0.3736905977E+01      0.9193368178E+01
          0                 4           2             4    7     1       0.7254188116E-01       5    6    1         0.4002563431E+01      0.9804269946E+01
          0                 5           2             4    7     1      -0.2887226744E-02       5    8    1        -0.1637546985E+00      0.4011042549E+00
          0                 6           1             4    7     1       0.3562713481E-04       5    8    1         0.2076799859E-02      0.5086953101E-02

    ------------------------------------------------
       NWT REQUIRED            6 OUTER ITERATIONS 
       AND A TOTAL OF         11 INNER ITERATIONS.
    ------------------------------------------------

 NO OUTPUT CONTROL FOR STRESS PERIOD   31   TIME STEP   23
 
 SOLVING FOR HEAD 
                                                   Max.-Head-Change                         Max.-Flux-Residual
  Residual-Control   Outer-Iter.   Inner-Iter.     Column Row Layer    Maximum-Head-Change  Column Row Layer    Maximum-Flux-Residual          L2-NORM 
          0                 1           2             4    7     1       0.1600154274E-01       4    7    1         0.8418638213E+00      0.1907213654E+01
          0                 2           2             4    7     1      -0.1556518964E-02       4    7    1        -0.8418672598E-01      0.1898213781E+00
          0                 3           2             4    7     1      -0.6958967464E-01       5    8    1        -0.3737010232E+01      0.9193646729E+01
          0                 4           2             4    7     1       0.7254259960E-01       5    6    1         0.4002604441E+01      0.9804366048E+01
          0                 5           2             4    7     1      -0.2887255338E-02       5    8    1        -0.1637563725E+00      0.4011054775E+00
          0                 6           1             4    7     1       0.3562748743E-04       5    8    1         0.2076821082E-02      0.5086970698E-02

    ------------------------------------------------
       NWT REQUIRED            6 OUTER ITERATIONS 
       AND A TOTAL OF         11 INNER ITERATIONS.
    ------------------------------------------------

 NO OUTPUT CONTROL FOR STRESS PERIOD   31   TIME STEP   24
 
 SOLVING FOR HEAD 
                                                   Max.-Head-Change                         Max.-Flux-Residual
  Residual-Control   Outer-Iter.   Inner-Iter.     Column Row Layer    Maximum-Head-Change  Column Row Layer    Maximum-Flux-Residual          L2-NORM 
          0                 1           2             4    7     1       0.1580225885E-01       4    7    1         0.8314216102E+00      0.1889555311E+01
          0                 2           2             4    7     1      -0.1537134005E-02       3   13    1        -0.9808713903E-01      0.2078053491E+00
          0                 3           2             4    7     1      -0.6959162347E-01       5    8    1        -0.3737111360E+01      0.9193739813E+01
          0                 4           2             4    7     1       0.7254330810E-01       5    6    1         0.4002644760E+01      0.9804460543E+01
          0                 5           2             4    7     1      -0.2887283537E-02       5    8    1        -0.1637580181E+00      0.4011093633E+00
          0                 6           1             4    7     1       0.3562783547E-04       5    8    1         0.2076841962E-02      0.5087018232E-02

    ------------------------------------------------
       NWT REQUIRED            6 OUTER ITERATIONS 
       AND A TOTAL OF         11 INNER ITERATIONS.
    ------------------------------------------------

 NO OUTPUT CONTROL FOR STRESS PERIOD   31   TIME STEP   25
 
 SOLVING FOR HEAD 
                                                   Max.-Head-Change                         Max.-Flux-Residual
  Residual-Control   Outer-Iter.   Inner-Iter.     Column Row Layer    Maximum-Head-Change  Column Row Layer    Maximum-Flux-Residual          L2-NORM 
          0                 1           2             4    7     1       0.1560477525E-01       4    7    1         0.8210668476E+00      0.1872268275E+01
          0                 2           2             4    7     1      -0.1517924162E-02       3   13    1        -0.9636616687E-01      0.2054016372E+00
          0                 3           2             4    7     1      -0.6959355122E-01       5    6    1        -0.3737210030E+01      0.9194010714E+01
          0                 4           2             4    7     1       0.7254400659E-01       5    6    1         0.4002684397E+01      0.9804554415E+01
          0                 5           2             4    7     1      -0.2887311338E-02       5    8    1        -0.1637596358E+00      0.4011132329E+00
          0                 6           1             4    7     1       0.3562817835E-04       5    8    1         0.2076862467E-02      0.5087073600E-02

    ------------------------------------------------
       NWT REQUIRED            6 OUTER ITERATIONS 
       AND A TOTAL OF         11 INNER ITERATIONS.
    ------------------------------------------------

 NO OUTPUT CONTROL FOR STRESS PERIOD   31   TIME STEP   26
 
 SOLVING FOR HEAD 
                                                   Max.-Head-Change                         Max.-Flux-Residual
  Residual-Control   Outer-Iter.   Inner-Iter.     Column Row Layer    Maximum-Head-Change  Column Row Layer    Maximum-Flux-Residual          L2-NORM 
          0                 1           2             4    7     1       0.1540932120E-01       4    7    1         0.8108127922E+00      0.1855453387E+01
          0                 2           2             4    7     1      -0.1498911737E-02       3   13    1        -0.9469651464E-01      0.2030658628E+00
          0                 3           2             4    7     1      -0.6959545636E-01       5    6    1        -0.3737306708E+01      0.9194274856E+01
          0                 4           2             4    7     1       0.7254469498E-01       5    6    1         0.4002723352E+01      0.9804647213E+01
          0                 5           2             4    7     1      -0.2887338737E-02       5    8    1        -0.1637612259E+00      0.4011170568E+00
          0                 6           1             4    7     1       0.3562851652E-04       5    8    1         0.2076882643E-02      0.5087121366E-02

    ------------------------------------------------
       NWT REQUIRED            6 OUTER ITERATIONS 
       AND A TOTAL OF         11 INNER ITERATIONS.
    ------------------------------------------------

 NO OUTPUT CONTROL FOR STRESS PERIOD   31   TIME STEP   27
 
 SOLVING FOR HEAD 
                                                   Max.-Head-Change                         Max.-Flux-Residual
  Residual-Control   Outer-Iter.   Inner-Iter.     Column Row Layer    Maximum-Head-Change  Column Row Layer    Maximum-Flux-Residual          L2-NORM 
          0                 1           2             4    7     1       0.1521571202E-01       4    7    1         0.8006492344E+00      0.1839101859E+01
          0                 2           2             4    7     1      -0.1480078765E-02       3   13    1        -0.9308199999E-01      0.2007979792E+00
          0                 3           2             4    7     1      -0.6959734013E-01       5    6    1        -0.3737400593E+01      0.9194532355E+01
          0                 4           2             4    7     1       0.7254537336E-01       5    6    1         0.4002761634E+01      0.9804738636E+01
          0                 5           2             4    7     1      -0.2887365738E-02       5    8    1        -0.1637627888E+00      0.4011208158E+00
          0                 6           1             4    7     1       0.3562884977E-04       5    8    1         0.2076902467E-02      0.5087168661E-02

    ------------------------------------------------
       NWT REQUIRED            6 OUTER ITERATIONS 
       AND A TOTAL OF         11 INNER ITERATIONS.
    ------------------------------------------------

 NO OUTPUT CONTROL FOR STRESS PERIOD   31   TIME STEP   28
 
 SOLVING FOR HEAD 
                                                   Max.-Head-Change                         Max.-Flux-Residual
  Residual-Control   Outer-Iter.   Inner-Iter.     Column Row Layer    Maximum-Head-Change  Column Row Layer    Maximum-Flux-Residual          L2-NORM 
          0                 1           2             4    7     1       0.1502430104E-01       4    7    1         0.7905960615E+00      0.1823188714E+01
          0                 2           2             4    7     1      -0.1461459616E-02       3   13    1        -0.9152422339E-01      0.1985984426E+00
          0                 3           2             4    7     1      -0.6959920019E-01       5    6    1        -0.3737491803E+01      0.9194783575E+01
          0                 4           2             4    7     1       0.7254604160E-01       5    6    1         0.4002799253E+01      0.9804828836E+01
          0                 5           2             4    7     1      -0.2887392334E-02       5    8    1        -0.1637643246E+00      0.4011245289E+00
          0                 6           1             4    7     1       0.3562917786E-04       5    8    1         0.2076921933E-02      0.5087216345E-02

    ------------------------------------------------
       NWT REQUIRED            6 OUTER ITERATIONS 
       AND A TOTAL OF         11 INNER ITERATIONS.
    ------------------------------------------------

 NO OUTPUT CONTROL FOR STRESS PERIOD   31   TIME STEP   29
 
 SOLVING FOR HEAD 
                                                   Max.-Head-Change                         Max.-Flux-Residual
  Residual-Control   Outer-Iter.   Inner-Iter.     Column Row Layer    Maximum-Head-Change  Column Row Layer    Maximum-Flux-Residual          L2-NORM 
          0                 1           2             4    7     1       0.1483501071E-01       4    7    1         0.7806494953E+00      0.1807687185E+01
          0                 2           2             4    7     1      -0.1443046748E-02       3   13    1        -0.9002271665E-01      0.1964638688E+00
          0                 3           2             4    7     1      -0.6960103704E-01       5    6    1        -0.3737580568E+01      0.9195028831E+01
          0                 4           2             4    7     1       0.7254669974E-01       5    6    1         0.4002836223E+01      0.9804917801E+01
          0                 5           2             4    7     1      -0.2887418529E-02       5    8    1        -0.1637658339E+00      0.4011281877E+00
          0                 6           1             4    7     1       0.3562950092E-04       5    8    1         0.2076941083E-02      0.5087266159E-02

    ------------------------------------------------
       NWT REQUIRED            6 OUTER ITERATIONS 
       AND A TOTAL OF         11 INNER ITERATIONS.
    ------------------------------------------------

 NO OUTPUT CONTROL FOR STRESS PERIOD   31   TIME STEP   30



 STREAM LISTING     PERIOD     31   STEP       30

 LAYER ROW COL. STREAM  RCH.  FLOW INTO     FLOW TO   FLOW OUT OF   OVRLND.     DIRECT     STREAM       STREAM     STREAM     STREAM   STREAMBED  STREAMBED
                SEG.NO.  NO.  STRM. RCH.    AQUIFER    STRM. RCH.    RUNOFF     PRECIP       ET          HEAD       DEPTH      WIDTH   CONDCTNC.   GRADIENT

   1    1    1     1     1    6.2248E+01  3.7978E-01   6.1868E+01  0.000E+00  0.000E+00  0.000E+00  1.09460E+03  1.553E+00  1.854E+01  8.342E-02  1.518E+00
   1    2    2     1     2    6.1868E+01  5.8816E-01   6.1280E+01  0.000E+00  0.000E+00  0.000E+00  1.08961E+03  1.547E+00  1.848E+01  1.294E-01  1.516E+00
   1    3    3     1     3    6.1280E+01  5.0162E-01   6.0779E+01  0.000E+00  0.000E+00  0.000E+00  1.08396E+03  1.540E+00  1.841E+01  1.105E-01  1.513E+00
   1    3    4     1     4    6.0779E+01  4.6193E-01   6.0317E+01  0.000E+00  0.000E+00  0.000E+00  1.07894E+03  1.534E+00  1.836E+01  1.019E-01  1.511E+00
   1    4    5     2     1    5.8317E+01  3.9026E-01   5.7926E+01  0.000E+00  0.000E+00  0.000E+00  1.07394E+03  2.003E+00  1.200E+01  7.800E-02  1.668E+00
   1    5    6     2     2    5.7926E+01  2.9977E-01   5.7627E+01  0.000E+00  0.000E+00  0.000E+00  1.06851E+03  1.996E+00  1.200E+01  6.000E-02  1.665E+00
   1    6    6     2     3    5.7627E+01  2.9940E-01   5.7327E+01  0.000E+00  0.000E+00  0.000E+00  1.06378E+03  1.990E+00  1.200E+01  6.000E-02  1.663E+00
   1    7    6     2     4    5.7327E+01  2.9902E-01   5.7028E+01  0.000E+00  0.000E+00  0.000E+00  1.05906E+03  1.984E+00  1.200E+01  6.000E-02  1.661E+00
   1    8    6     2     5    5.7028E+01  2.9865E-01   5.6730E+01  0.000E+00  0.000E+00  0.000E+00  1.05434E+03  1.977E+00  1.200E+01  6.000E-02  1.659E+00
   1    3    5     3     1    2.0000E+00  2.8252E-01   1.7175E+00  0.000E+00  0.000E+00  0.000E+00  1.07555E+03  1.909E+00  9.636E+00  7.227E-02  1.955E+00
   1    3    6     3     2    1.7175E+00  2.4905E-01   1.4684E+00  0.000E+00  0.000E+00  0.000E+00  1.07264E+03  1.727E+00  8.909E+00  6.682E-02  1.864E+00
   1    3    7     3     3    1.4684E+00  1.9718E-01   1.2712E+00  0.000E+00  0.000E+00  0.000E+00  1.06987E+03  1.555E+00  8.218E+00  5.547E-02  1.777E+00
   1    4    8     3     4    1.2712E+00  2.2567E-01   1.0456E+00  0.000E+00  0.000E+00  0.000E+00  1.06682E+03  1.364E+00  7.455E+00  6.709E-02  1.682E+00
   1    5    8     3     5    1.0456E+00  1.5790E-01   8.8768E-01  0.000E+00  0.000E+00  0.000E+00  1.06362E+03  1.164E+00  6.655E+00  4.991E-02  1.582E+00
   1    6    8     3     6    8.8768E-01  5.5980E-02   8.3170E-01  0.000E+00  0.000E+00  0.000E+00  1.06158E+03  1.036E+00  6.145E+00  1.844E-02  1.518E+00
   1    5   10     4     1    1.0000E+01  9.0919E-02   9.9091E+00  0.000E+00  0.000E+00  0.000E+00  1.07836E+03  6.368E-01  1.000E+01  2.500E-02  1.212E+00
   1    5    9     4     2    9.9091E+00  1.8158E-01   9.7275E+00  0.000E+00  0.000E+00  0.000E+00  1.07154E+03  6.315E-01  1.000E+01  5.000E-02  1.211E+00
   1    6    8     4     3    9.7275E+00  1.2689E-01   9.6006E+00  0.000E+00  0.000E+00  0.000E+00  1.06381E+03  6.256E-01  1.000E+01  3.500E-02  1.209E+00
   1    6    8     5     1    1.0432E+01  2.2686E-01   1.0205E+01  0.000E+00  0.000E+00  0.000E+00  1.05868E+03  6.790E-01  1.542E+01  6.166E-02  1.226E+00
   1    7    7     5     2    1.0205E+01  2.7894E-01   9.9265E+00  0.000E+00  0.000E+00  0.000E+00  1.05417E+03  6.732E-01  1.519E+01  7.594E-02  1.224E+00
   1    8    7     5     3    9.9265E+00  1.9221E-01   9.7343E+00  0.000E+00  0.000E+00  0.000E+00  1.04992E+03  6.676E-01  1.497E+01  5.241E-02  1.223E+00
   1    8    6     5     4    9.7343E+00  1.3577E-01   9.5985E+00  0.000E+00  0.000E+00  0.000E+00  1.04691E+03  6.637E-01  1.482E+01  3.706E-02  1.221E+00
   1    9    6     6     1    4.3881E+01  2.8248E-01   4.3599E+01  0.000E+00  0.000E+00  0.000E+00  1.04444E+03  1.708E+00  1.200E+01  6.000E-02  1.569E+00
   1   10    7     6     2    4.3599E+01  2.8208E-01   4.3316E+01  0.000E+00  0.000E+00  0.000E+00  1.03988E+03  1.701E+00  1.200E+01  6.000E-02  1.567E+00
   1   11    7     6     3    4.3316E+01  2.8169E-01   4.3035E+01  0.000E+00  0.000E+00  0.000E+00  1.03533E+03  1.695E+00  1.200E+01  6.000E-02  1.565E+00
   1   12    7     6     4    4.3035E+01  2.8129E-01   4.2753E+01  0.000E+00  0.000E+00  0.000E+00  1.03078E+03  1.688E+00  1.200E+01  6.000E-02  1.563E+00
   1   13    7     6     5    4.2753E+01  1.3523E-02   4.2740E+01  0.000E+00  0.000E+00  0.000E+00  1.02759E+03  1.685E+00  1.200E+01  2.400E-02  1.878E-01
   1   14    9     7     1    1.5000E+02  1.3419E+00   1.4866E+02  0.000E+00  0.000E+00  0.000E+00  1.03987E+03  2.288E+00  5.529E+01  5.593E-01  7.998E-01
   1   13    8     7     2    1.4866E+02  1.8510E+00   1.4681E+02  0.000E+00  0.000E+00  0.000E+00  1.03478E+03  2.279E+00  5.526E+01  6.148E-01  1.004E+00
   1   13    7     7     3    1.4681E+02  1.4851E+00   1.4532E+02  0.000E+00  0.000E+00  0.000E+00  1.02969E+03  2.270E+00  5.522E+01  5.584E-01  8.865E-01
   1   13    6     8     1    1.8806E+02  1.0065E+00   1.8706E+02  0.000E+00  0.000E+00  0.000E+00  1.02494E+03  3.063E+00  4.441E+01  4.526E-01  7.413E-01
   1   13    5     8     2    1.8706E+02  2.2614E-01   1.8683E+02  0.000E+00  0.000E+00  0.000E+00  1.01868E+03  3.059E+00  4.436E+01  4.520E-01  1.668E-01
   1   13    4     8     3    1.8683E+02 -2.3248E+00   1.8915E+02  0.000E+00  0.000E+00  0.000E+00  1.01244E+03  3.066E+00  4.445E+01  4.530E+00 -1.711E-01
   1   13    3     8     4    1.8915E+02 -3.5986E+00   1.9275E+02  0.000E+00  0.000E+00  0.000E+00  1.00621E+03  3.084E+00  4.471E+01  4.557E+00 -2.633E-01
   1   13    2     8     5    1.9275E+02 -2.5873E+00   1.9534E+02  0.000E+00  0.000E+00  0.000E+00  9.99977E+02  3.102E+00  4.498E+01  4.584E+00 -1.881E-01
   1   13    1     8     6    1.9534E+02 -2.0207E+00   1.9736E+02  0.000E+00  0.000E+00  0.000E+00  9.94991E+02  3.116E+00  4.518E+01  2.763E+00 -2.438E-01
   1    8    6     9     1    2.2447E+01  0.0000E+00   2.2447E+01  0.000E+00  0.000E+00  0.000E+00  1.08243E+03  3.681E+00  4.000E+00  0.000E+00  2.227E+00
   1    8    5     9     2    2.2447E+01  0.0000E+00   2.2447E+01  0.000E+00  0.000E+00  0.000E+00  1.08193E+03  3.681E+00  4.000E+00  0.000E+00  2.227E+00





UNSATURATED ZONE PACKAGE VOLUMETRIC BUDGET FOR  TIME STEP    30 STRESS PERIOD   31
  ------------------------------------------------------------------------------



     CUMULATIVE VOLUMES      L**3       RATES FOR THIS TIME STEP      L**3/T
     ------------------                 ------------------------

           IN:                                      IN:
           ---                                      ---
        INFILTRATION =  1176687972.1860          INFILTRATION =          23.2950

          OUT:                                     OUT:
          ----                                     ----
              UZF ET =   953364269.0923                UZF ET =          23.3175
        UZF RECHARGE =       73224.0000          UZF RECHARGE =       0.0000E+00

            IN - OUT =   223250479.0937              IN - OUT =      -2.2533E-02

          STORAGE:                                 STORAGE:
          --------                                 --------
      STORAGE CHANGE =   223405601.8401        STORAGE CHANGE =      -2.2533E-02

 PERCENT DISCREPANCY IS DIFFERENCE BETWEEN IN-OUT MINUS CHANGE IN STORAGE
 DIVIDED BY THE AVERAGE OF IN AND OUT TIMES 100

 PERCENT DISCREPANCY =          -0.00     PERCENT DISCREPANCY =           0.00






1
  VOLUMETRIC BUDGET FOR AGRICULTURAL FIELDS AT  END OF TIME STEP   30, STRESS PERIOD  31
  ------------------------------------------------------------------------------

     CUMULATIVE VOLUMES      L**3       RATES FOR THIS TIME STEP      L**3/T
     ------------------                 ------------------------

           IN:                                      IN:
           ---                                      ---
           AG WELLS      =   416075776.0000             AG WELLS      =           0.0000
      DIVERSION SEGMENTS =   693711296.0000        DIVERSION SEGMENTS =          22.4470
           GW IRRIGATION =           0.0000             GW IRRIGATION =           0.0000
           SW IRRIGATION =           0.0000             SW IRRIGATION =           0.0000
        SYSTEM LOSSES GW =           0.0000          SYSTEM LOSSES GW =           0.0000
        SYSTEM LOSSES SW =           0.0000          SYSTEM LOSSES SW =           0.0000

                TOTAL IN =  1109787136.0000                  TOTAL IN =          22.4470

          OUT:                                     OUT:
          ----                                     ----
           AG WELLS      =           0.0000             AG WELLS      =           0.0000
      DIVERSION SEGMENTS =           0.0000        DIVERSION SEGMENTS =           0.0000
           GW IRRIGATION =   416075776.0000             GW IRRIGATION =           0.0000
           SW IRRIGATION =   693725824.0000             SW IRRIGATION =          22.4475
        SYSTEM LOSSES GW =           0.0000          SYSTEM LOSSES GW =           0.0000
        SYSTEM LOSSES SW =           0.0000          SYSTEM LOSSES SW =           0.0000

               TOTAL OUT =  1109801600.0000                 TOTAL OUT =          22.4475

                IN - OUT =      -14464.0000                  IN - OUT =      -4.4823E-04

     PERCENT DISCREPANCY =          -0.00         PERCENT DISCREPANCY =          -0.00



1
  VOLUMETRIC BUDGET FOR ENTIRE MODEL AT END OF TIME STEP   30, STRESS PERIOD  31
  ------------------------------------------------------------------------------

     CUMULATIVE VOLUMES      L**3       RATES FOR THIS TIME STEP      L**3/T
     ------------------                 ------------------------

           IN:                                      IN:
           ---                                      ---
             STORAGE     =   693623040.0000               STORAGE     =           2.6807
       CONSTANT HEAD     =           0.0000         CONSTANT HEAD     =           0.0000
     HEAD DEP BOUNDS     =    22577718.0000       HEAD DEP BOUNDS     =           0.2862
      STREAM LEAKAGE     =   946813248.0000        STREAM LEAKAGE     =          12.9718
        UZF RECHARGE     =       73223.9531          UZF RECHARGE     =           0.0000
               GW ET     =           0.0000                 GW ET     =           0.0000
     SURFACE LEAKAGE     =           0.0000       SURFACE LEAKAGE     =           0.0000
           AG WELLS      =           0.0000             AG WELLS      =           0.0000

                TOTAL IN =  1663087232.0000                  TOTAL IN =          15.9387

          OUT:                                     OUT:
          ----                                     ----
             STORAGE     =   374554304.0000               STORAGE     =           5.1137
       CONSTANT HEAD     =           0.0000         CONSTANT HEAD     =           0.0000
     HEAD DEP BOUNDS     =    22975860.0000       HEAD DEP BOUNDS     =           0.2935
      STREAM LEAKAGE     =   846671680.0000        STREAM LEAKAGE     =          10.5313
        UZF RECHARGE     =           0.0000          UZF RECHARGE     =           0.0000
               GW ET     =     2818101.5000                 GW ET     =           0.0000
     SURFACE LEAKAGE     =           0.0000       SURFACE LEAKAGE     =           0.0000
           AG WELLS      =   416075776.0000             AG WELLS      =           0.0000

               TOTAL OUT =  1663095680.0000                 TOTAL OUT =          15.9385

                IN - OUT =       -8448.0000                  IN - OUT =       1.8787E-04

     PERCENT DISCREPANCY =          -0.00         PERCENT DISCREPANCY =           0.00






         TIME SUMMARY AT END OF TIME STEP   30 IN STRESS PERIOD   31
                    SECONDS     MINUTES      HOURS       DAYS        YEARS
                    -----------------------------------------------------------
   TIME STEP LENGTH  87667.      1461.1      24.352      1.0147     2.77799E-03
 STRESS PERIOD TIME 2.63000E+06  43833.      730.56      30.440     8.33397E-02
         TOTAL TIME 7.89864E+07 1.31644E+06  21941.      914.20      2.5029    
1
1
                            STRESS PERIOD NO.   32, LENGTH =   2630000.    
                            -----------------------------------------------

                              NUMBER OF TIME STEPS =    30

                               MULTIPLIER FOR DELT =     1.000

                            INITIAL TIME STEP SIZE =   87666.66    

 REUSING NON-PARAMETER GHB CELLS FROM LAST STRESS PERIOD

      2 GHB CELLS

 REUSING STREAM SEGMENT DATA FROM LAST STRESS PERIOD



            AREAL INFILTRATION RATE
 READING ON UNIT   19 WITH FORMAT: (FREE)              

            1           2           3           4           5           6           7           8           9          10
 ........................................................................................................................
   1   1.0000E-10  2.0000E-10   0.000       0.000       0.000       0.000       0.000       0.000       0.000       0.000    
   2   2.0000E-10  1.0000E-10  2.0000E-10   0.000       0.000      8.0000E-10  8.0000E-10  5.0000E-10   0.000       0.000    
   3    0.000      5.0000E-10  1.0000E-10  1.0000E-10  8.0000E-10  8.0000E-10  5.0000E-10  5.0000E-10   0.000       0.000    
   4   8.0000E-10  5.0000E-10  1.0000E-10  1.0000E-10  1.0000E-10  1.0000E-10  1.0000E-10  1.0000E-10  2.0000E-10   0.000    
   5   8.0000E-10  5.0000E-10  1.0000E-10  1.0000E-10  1.0000E-10  1.0000E-10  1.0000E-10  1.0000E-10  1.0000E-10  1.0000E-10
   6   8.0000E-10  5.0000E-10  5.0000E-10  2.0000E-10  2.0000E-10  1.0000E-10  1.0000E-10  1.0000E-10  1.0000E-10  5.0000E-10
   7   8.0000E-10  5.0000E-10  5.0000E-10  2.0000E-10  2.0000E-10  1.0000E-10  1.0000E-10  2.0000E-10  2.0000E-10   0.000    
   8    0.000      5.0000E-10  5.0000E-10  2.0000E-10  2.0000E-10  1.0000E-10  1.0000E-10  2.0000E-10  5.0000E-10   0.000    
   9    0.000      5.0000E-10  5.0000E-10  2.0000E-10  2.0000E-10  1.0000E-10  1.0000E-10  2.0000E-10  5.0000E-10   0.000    
  10    0.000      5.0000E-10  5.0000E-10  2.0000E-10  2.0000E-10  1.0000E-10  1.0000E-10  2.0000E-10  5.0000E-10  8.0000E-10
  11    0.000      1.0000E-10  1.0000E-10  1.0000E-10  1.0000E-10  1.0000E-10  1.0000E-10  2.0000E-10  5.0000E-10   0.000    
  12   1.0000E-10  1.0000E-10  1.0000E-10  1.0000E-10  1.0000E-10  1.0000E-10  1.0000E-10  1.0000E-10  2.0000E-10   0.000    
  13   1.0000E-10  1.0000E-10  2.0000E-10  2.0000E-10  2.0000E-10  2.0000E-10  2.0000E-10  1.0000E-10  1.0000E-10   0.000    
  14    0.000      2.0000E-10  5.0000E-10  5.0000E-10  5.0000E-10  5.0000E-10  5.0000E-10  2.0000E-10  1.0000E-10   0.000    
  15    0.000       0.000      8.0000E-10  8.0000E-10  8.0000E-10  8.0000E-10   0.000       0.000       0.000       0.000    

                  ET RATE =  4.000000E-07

 USING ET EXTINCTION DEPTH FROM PREVIOUS STRESS PERIOD. CURRENT PERIOD IS:      32

 USING EXTINCTION WATER CONTENT FROM PREVIOUS STRESS PERIOD. CURRENT PERIOD IS:      32

 USING AIR ENTRY PRESSURE FROM PREVIOUS STRESS PERIOD. CURRENT PERIOD IS:      32

 USING ROOT PRESSURE HEAD FROM PREVIOUS STRESS PERIOD. CURRENT PERIOD IS:      32

 USING ROOT ACTIVITY FROM PREVIOUS STRESS PERIOD. CURRENT PERIOD IS:      32

 PROCESSING AG STRESS PERIOD DATA

 READING AG STRESS PERIOD DATA

 READING IRRIGATION SEGMENT

 READING IRRIGATION WELL

 READING SUPPLEMENTAL WELL

 END PROCESSING AG STRESS PERIOD DATA OPTIONS
 
 SOLVING FOR HEAD 
                                                   Max.-Head-Change                         Max.-Flux-Residual
  Residual-Control   Outer-Iter.   Inner-Iter.     Column Row Layer    Maximum-Head-Change  Column Row Layer    Maximum-Flux-Residual          L2-NORM 
          0                 1           2             4    7     1       0.1464774294E-01       4   13    1        -0.7742458810E+00      0.2097513259E+01
          0                 2           2             4    7     1      -0.1354628933E+00       4    7    1        -0.7271474473E+01      0.1777261664E+02
          0                 3           2             4    7     1       0.9224406187E-02       4    7    1         0.5089965901E+00      0.1244059156E+01
          0                 4           2             4    7     1      -0.3670482980E-03       4    7    1        -0.2081802128E-01      0.5088516392E-01
          0                 5           1             4    7     1       0.4525863894E-05       4    7    1         0.2638284486E-03      0.6454100972E-03

    ------------------------------------------------
       NWT REQUIRED            5 OUTER ITERATIONS 
       AND A TOTAL OF          9 INNER ITERATIONS.
    ------------------------------------------------

 NO OUTPUT CONTROL FOR STRESS PERIOD   32   TIME STEP    1
 
 SOLVING FOR HEAD 
                                                   Max.-Head-Change                         Max.-Flux-Residual
  Residual-Control   Outer-Iter.   Inner-Iter.     Column Row Layer    Maximum-Head-Change  Column Row Layer    Maximum-Flux-Residual          L2-NORM 
          0                 1           2             4    7     1       0.1519086890E-01       4    7    1         0.7957226087E+00      0.1976582245E+01
          0                 2           2             7   13     1      -0.3956374667E-02       7   13    1        -0.2195499309E+00      0.2925783586E+00
          0                 3           2             4    7     1      -0.1024601061E+00       5    6    1        -0.5500068006E+01      0.1353227567E+02
          0                 4           2             4    7     1       0.1035348102E+00       5    6    1         0.5712493747E+01      0.1399271332E+02
          0                 5           2             4    7     1      -0.9905304313E-01       4    8    1        -0.5617536043E+01      0.1377437076E+02
          0                 6           2             4    7     1       0.4920746542E-01       5    6    1         0.2868208098E+01      0.7026347717E+01
          0                 7           2             4    7     1       0.6919567733E-03       5    6    1         0.4033269722E-01      0.9903633730E-01
          0                 8           1             4    7     1       0.1016353139E-04       5    6    1         0.5924047914E-03      0.1478890775E-02

    ------------------------------------------------
       NWT REQUIRED            8 OUTER ITERATIONS 
       AND A TOTAL OF         15 INNER ITERATIONS.
    ------------------------------------------------

 NO OUTPUT CONTROL FOR STRESS PERIOD   32   TIME STEP    2
 
 SOLVING FOR HEAD 
                                                   Max.-Head-Change                         Max.-Flux-Residual
  Residual-Control   Outer-Iter.   Inner-Iter.     Column Row Layer    Maximum-Head-Change  Column Row Layer    Maximum-Flux-Residual          L2-NORM 
          0                 1           2             4    7     1       0.1534418997E-01       4    7    1         0.8026191725E+00      0.2096875403E+01
          0                 2           2             7   13     1      -0.3970931527E-02       7   13    1        -0.2203532906E+00      0.3039174914E+00
          0                 3           2             4    7     1      -0.1857250316E+00       5    6    1        -0.9968843216E+01      0.2449587522E+02
          0                 4           2             4    7     1       0.1663013144E+00       5    6    1         0.9175668777E+01      0.2247608018E+02
          0                 5           2             4    7     1      -0.6651189970E-02       5    8    1        -0.3773645851E+00      0.9241710284E+00
          0                 6           1             4    7     1       0.8207266152E-04       5    8    1         0.4787183715E-02      0.1172619486E-01

    ------------------------------------------------
       NWT REQUIRED            6 OUTER ITERATIONS 
       AND A TOTAL OF         11 INNER ITERATIONS.
    ------------------------------------------------

 NO OUTPUT CONTROL FOR STRESS PERIOD   32   TIME STEP    3
 
 SOLVING FOR HEAD 
                                                   Max.-Head-Change                         Max.-Flux-Residual
  Residual-Control   Outer-Iter.   Inner-Iter.     Column Row Layer    Maximum-Head-Change  Column Row Layer    Maximum-Flux-Residual          L2-NORM 
          0                 1           2             4    7     1       0.1538838626E-01       4    7    1         0.8044954182E+00      0.2163500158E+01
          0                 2           2             7   13     1      -0.3985022950E-02       7   13    1        -0.2211315931E+00      0.3087596473E+00
          0                 3           2             4    7     1      -0.1857715092E+00       5    7    1        -0.9971246507E+01      0.2450225473E+02
          0                 4           2             4    7     1       0.1663045036E+00       5    6    1         0.9175835264E+01      0.2247649650E+02
          0                 5           2             4    7     1      -0.6651319011E-02       5    8    1        -0.3773715133E+00      0.9241881761E+00
          0                 6           1             4    7     1       0.8207425360E-04       5    8    1         0.4787271598E-02      0.1172637452E-01

    ------------------------------------------------
       NWT REQUIRED            6 OUTER ITERATIONS 
       AND A TOTAL OF         11 INNER ITERATIONS.
    ------------------------------------------------

 NO OUTPUT CONTROL FOR STRESS PERIOD   32   TIME STEP    4
 
 SOLVING FOR HEAD 
                                                   Max.-Head-Change                         Max.-Flux-Residual
  Residual-Control   Outer-Iter.   Inner-Iter.     Column Row Layer    Maximum-Head-Change  Column Row Layer    Maximum-Flux-Residual          L2-NORM 
          0                 1           2             4    7     1       0.1544011770E-01       5    8    1         0.8069631888E+00      0.2228739069E+01
          0                 2           2             7   13     1      -0.3998737034E-02       7   13    1        -0.2218890894E+00      0.3135681094E+00
          0                 3           2             4    7     1      -0.1857737317E+00       5    7    1        -0.9971304313E+01      0.2450281348E+02
          0                 4           2             4    7     1       0.1663046683E+00       5    6    1         0.9175835397E+01      0.2247653012E+02
          0                 5           2             4    7     1      -0.6651325566E-02       5    8    1        -0.3773715156E+00      0.9242186045E+00
          0                 6           1             4    7     1       0.8207433481E-04       5    8    1         0.4787271615E-02      0.1172727535E-01

    ------------------------------------------------
       NWT REQUIRED            6 OUTER ITERATIONS 
       AND A TOTAL OF         11 INNER ITERATIONS.
    ------------------------------------------------

 NO OUTPUT CONTROL FOR STRESS PERIOD   32   TIME STEP    5
 
 SOLVING FOR HEAD 
                                                   Max.-Head-Change                         Max.-Flux-Residual
  Residual-Control   Outer-Iter.   Inner-Iter.     Column Row Layer    Maximum-Head-Change  Column Row Layer    Maximum-Flux-Residual          L2-NORM 
          0                 1           2             4    7     1       0.1549882658E-01       5    8    1         0.8254645175E+00      0.2291985477E+01
          0                 2           2             7   13     1      -0.4012113562E-02       7   13    1        -0.2226279898E+00      0.3182950972E+00
          0                 3           2             4    7     1      -0.1857758741E+00       5    7    1        -0.9971361813E+01      0.2450334384E+02
          0                 4           2             4    7     1       0.1663048300E+00       5    6    1         0.9175835889E+01      0.2247658346E+02
          0                 5           2             4    7     1      -0.6651332005E-02       5    8    1        -0.3773715338E+00      0.9242727817E+00
          0                 6           1             4    7     1       0.8207441412E-04       5    8    1         0.4787271823E-02      0.1172888425E-01

    ------------------------------------------------
       NWT REQUIRED            6 OUTER ITERATIONS 
       AND A TOTAL OF         11 INNER ITERATIONS.
    ------------------------------------------------

 NO OUTPUT CONTROL FOR STRESS PERIOD   32   TIME STEP    6
 
 SOLVING FOR HEAD 
                                                   Max.-Head-Change                         Max.-Flux-Residual
  Residual-Control   Outer-Iter.   Inner-Iter.     Column Row Layer    Maximum-Head-Change  Column Row Layer    Maximum-Flux-Residual          L2-NORM 
          0                 1           2             5    8     1       0.1570398326E-01       5    8    1         0.8429603876E+00      0.2352889907E+01
          0                 2           2             7   13     1      -0.4025167164E-02       7   13    1        -0.2233490915E+00      0.3229075099E+00
          0                 3           2             4    7     1      -0.1857779067E+00       5    7    1        -0.9971417179E+01      0.2450384304E+02
          0                 4           2             4    7     1       0.1663049734E+00       5    6    1         0.9175835868E+01      0.2247658975E+02
          0                 5           2             4    7     1      -0.6651335614E-02       5    8    1        -0.3773714124E+00      0.9242725674E+00
          0                 6           1             4    7     1       0.8207445881E-04       5    8    1         0.4787270268E-02      0.1172884508E-01

    ------------------------------------------------
       NWT REQUIRED            6 OUTER ITERATIONS 
       AND A TOTAL OF         11 INNER ITERATIONS.
    ------------------------------------------------

 NO OUTPUT CONTROL FOR STRESS PERIOD   32   TIME STEP    7
 
 SOLVING FOR HEAD 
                                                   Max.-Head-Change                         Max.-Flux-Residual
  Residual-Control   Outer-Iter.   Inner-Iter.     Column Row Layer    Maximum-Head-Change  Column Row Layer    Maximum-Flux-Residual          L2-NORM 
          0                 1           2             5    8     1       0.1600561626E-01       5    8    1         0.8595127042E+00      0.2411290272E+01
          0                 2           2             7   13     1      -0.4037888553E-02       7   13    1        -0.2240518704E+00      0.3273863801E+00
          0                 3           2             4    7     1      -0.1857798677E+00       4    7    1        -0.9971489596E+01      0.2450431653E+02
          0                 4           2             4    7     1       0.1663051269E+00       5    6    1         0.9175836858E+01      0.2247659784E+02
          0                 5           2             4    7     1      -0.6651341727E-02       5    8    1        -0.3773714527E+00      0.9242727451E+00
          0                 6           1             4    7     1       0.8207453397E-04       5    8    1         0.4787270769E-02      0.1172881456E-01

    ------------------------------------------------
       NWT REQUIRED            6 OUTER ITERATIONS 
       AND A TOTAL OF         11 INNER ITERATIONS.
    ------------------------------------------------

 NO OUTPUT CONTROL FOR STRESS PERIOD   32   TIME STEP    8
 
 SOLVING FOR HEAD 
                                                   Max.-Head-Change                         Max.-Flux-Residual
  Residual-Control   Outer-Iter.   Inner-Iter.     Column Row Layer    Maximum-Head-Change  Column Row Layer    Maximum-Flux-Residual          L2-NORM 
          0                 1           2             5    8     1       0.1629160834E-01       5    8    1         0.8751945585E+00      0.2467099026E+01
          0                 2           2             7   13     1      -0.4050285333E-02       7   13    1        -0.2247367502E+00      0.3317168545E+00
          0                 3           2             4    7     1      -0.1857817608E+00       4    7    1        -0.9971591774E+01      0.2450476750E+02
          0                 4           2             4    7     1       0.1663052905E+00       5    6    1         0.9175838840E+01      0.2247660778E+02
          0                 5           2             4    7     1      -0.6651350347E-02       5    8    1        -0.3773716534E+00      0.9242732910E+00
          0                 6           1             4    7     1       0.8207464061E-04       5    8    1         0.4787273293E-02      0.1172879489E-01

    ------------------------------------------------
       NWT REQUIRED            6 OUTER ITERATIONS 
       AND A TOTAL OF         11 INNER ITERATIONS.
    ------------------------------------------------

 NO OUTPUT CONTROL FOR STRESS PERIOD   32   TIME STEP    9
 
 SOLVING FOR HEAD 
                                                   Max.-Head-Change                         Max.-Flux-Residual
  Residual-Control   Outer-Iter.   Inner-Iter.     Column Row Layer    Maximum-Head-Change  Column Row Layer    Maximum-Flux-Residual          L2-NORM 
          0                 1           2             5    8     1       0.1656287795E-01       5    8    1         0.8900575167E+00      0.2520286784E+01
          0                 2           2             7   13     1      -0.4062389028E-02       7   13    1        -0.2254054363E+00      0.3358907664E+00
          0                 3           2             4    7     1      -0.1857835535E+00       4    7    1        -0.9971688286E+01      0.2450519214E+02
          0                 4           2             4    7     1       0.1663054230E+00       5    6    1         0.9175839508E+01      0.2247661394E+02
          0                 5           2             4    7     1      -0.6651353526E-02       5    8    1        -0.3773715623E+00      0.9242730950E+00
          0                 6           1             4    7     1       0.8207468004E-04       5    8    1         0.4787272125E-02      0.1172877328E-01

    ------------------------------------------------
       NWT REQUIRED            6 OUTER ITERATIONS 
       AND A TOTAL OF         11 INNER ITERATIONS.
    ------------------------------------------------

 NO OUTPUT CONTROL FOR STRESS PERIOD   32   TIME STEP   10
 
 SOLVING FOR HEAD 
                                                   Max.-Head-Change                         Max.-Flux-Residual
  Residual-Control   Outer-Iter.   Inner-Iter.     Column Row Layer    Maximum-Head-Change  Column Row Layer    Maximum-Flux-Residual          L2-NORM 
          0                 1           2             5    8     1       0.1682041456E-01       5    8    1         0.9041570743E+00      0.2570960844E+01
          0                 2           2             7   13     1      -0.4074190984E-02       7   13    1        -0.2260574730E+00      0.3399503758E+00
          0                 3           2             4    7     1      -0.1857853023E+00       4    7    1        -0.9971782180E+01      0.2450559848E+02
          0                 4           2             4    7     1       0.1663055736E+00       5    6    1         0.9175841542E+01      0.2247662202E+02
          0                 5           2             4    7     1      -0.6651359523E-02       5    8    1        -0.3773716467E+00      0.9242731433E+00
          0                 6           1             4    7     1       0.8207475375E-04       5    8    1         0.4787273167E-02      0.1172871584E-01

    ------------------------------------------------
       NWT REQUIRED            6 OUTER ITERATIONS 
       AND A TOTAL OF         11 INNER ITERATIONS.
    ------------------------------------------------

 NO OUTPUT CONTROL FOR STRESS PERIOD   32   TIME STEP   11
 
 SOLVING FOR HEAD 
                                                   Max.-Head-Change                         Max.-Flux-Residual
  Residual-Control   Outer-Iter.   Inner-Iter.     Column Row Layer    Maximum-Head-Change  Column Row Layer    Maximum-Flux-Residual          L2-NORM 
          0                 1           2             5    8     1       0.1706513222E-01       5    8    1         0.9175445542E+00      0.2618997454E+01
          0                 2           2             7   13     1      -0.4085697184E-02       7   13    1        -0.2266931851E+00      0.3437575368E+00
          0                 3           2             4    7     1      -0.1857869744E+00       4    7    1        -0.9971871719E+01      0.2450598499E+02
          0                 4           2             4    7     1       0.1663057138E+00       5    6    1         0.9175843362E+01      0.2247663002E+02
          0                 5           2             4    7     1      -0.6651365110E-02       5    8    1        -0.3773717224E+00      0.9242733271E+00
          0                 6           1             4    7     1       0.8207482242E-04       5    8    1         0.4787274120E-02      0.1172870119E-01

    ------------------------------------------------
       NWT REQUIRED            6 OUTER ITERATIONS 
       AND A TOTAL OF         11 INNER ITERATIONS.
    ------------------------------------------------

 NO OUTPUT CONTROL FOR STRESS PERIOD   32   TIME STEP   12
 
 SOLVING FOR HEAD 
                                                   Max.-Head-Change                         Max.-Flux-Residual
  Residual-Control   Outer-Iter.   Inner-Iter.     Column Row Layer    Maximum-Head-Change  Column Row Layer    Maximum-Flux-Residual          L2-NORM 
          0                 1           2             5    8     1       0.1729787907E-01       5    8    1         0.9302673291E+00      0.2664674425E+01
          0                 2           2             7   13     1      -0.4096938777E-02       7   13    1        -0.2273142849E+00      0.3474519235E+00
          0                 3           2             4    7     1      -0.1857885894E+00       4    7    1        -0.9971957965E+01      0.2450635316E+02
          0                 4           2             4    7     1       0.1663058515E+00       5    6    1         0.9175845355E+01      0.2247663801E+02
          0                 5           2             4    7     1      -0.6651370595E-02       5    8    1        -0.3773718058E+00      0.9242735212E+00
          0                 6           1             4    7     1       0.8207489075E-04       5    8    1         0.4787275146E-02      0.1172867385E-01

    ------------------------------------------------
       NWT REQUIRED            6 OUTER ITERATIONS 
       AND A TOTAL OF         11 INNER ITERATIONS.
    ------------------------------------------------

 NO OUTPUT CONTROL FOR STRESS PERIOD   32   TIME STEP   13
 
 SOLVING FOR HEAD 
                                                   Max.-Head-Change                         Max.-Flux-Residual
  Residual-Control   Outer-Iter.   Inner-Iter.     Column Row Layer    Maximum-Head-Change  Column Row Layer    Maximum-Flux-Residual          L2-NORM 
          0                 1           2             5    8     1       0.1751929130E-01       5    8    1         0.9423615128E+00      0.2708032017E+01
          0                 2           2             7   13     1      -0.4107905969E-02       7   13    1        -0.2279202262E+00      0.3509911584E+00
          0                 3           2             4    7     1      -0.1857901330E+00       4    7    1        -0.9972040168E+01      0.2450670267E+02
          0                 4           2             4    7     1       0.1663059789E+00       5    6    1         0.9175847086E+01      0.2247664484E+02
          0                 5           2             4    7     1      -0.6651375673E-02       5    8    1        -0.3773718789E+00      0.9242736575E+00
          0                 6           1             4    7     1       0.8207495291E-04       5    8    1         0.4787276056E-02      0.1172865460E-01

    ------------------------------------------------
       NWT REQUIRED            6 OUTER ITERATIONS 
       AND A TOTAL OF         11 INNER ITERATIONS.
    ------------------------------------------------

 NO OUTPUT CONTROL FOR STRESS PERIOD   32   TIME STEP   14
 
 SOLVING FOR HEAD 
                                                   Max.-Head-Change                         Max.-Flux-Residual
  Residual-Control   Outer-Iter.   Inner-Iter.     Column Row Layer    Maximum-Head-Change  Column Row Layer    Maximum-Flux-Residual          L2-NORM 
          0                 1           2             5    8     1       0.1773010677E-01       5    8    1         0.9538679499E+00      0.2749162950E+01
          0                 2           2             7   13     1      -0.4118599429E-02       7   13    1        -0.2285110482E+00      0.3543769335E+00
          0                 3           2             4    7     1      -0.1857916429E+00       4    7    1        -0.9972120374E+01      0.2450703912E+02
          0                 4           2             4    7     1       0.1663061116E+00       5    6    1         0.9175849392E+01      0.2247665298E+02
          0                 5           2             4    7     1      -0.6651380961E-02       5    8    1        -0.3773719754E+00      0.9242738593E+00
          0                 6           1             4    7     1       0.8207501811E-04       5    8    1         0.4787277254E-02      0.1172863325E-01

    ------------------------------------------------
       NWT REQUIRED            6 OUTER ITERATIONS 
       AND A TOTAL OF         11 INNER ITERATIONS.
    ------------------------------------------------

 NO OUTPUT CONTROL FOR STRESS PERIOD   32   TIME STEP   15
 
 SOLVING FOR HEAD 
                                                   Max.-Head-Change                         Max.-Flux-Residual
  Residual-Control   Outer-Iter.   Inner-Iter.     Column Row Layer    Maximum-Head-Change  Column Row Layer    Maximum-Flux-Residual          L2-NORM 
          0                 1           2             5    8     1       0.1793114440E-01       5    8    1         0.9648328119E+00      0.2788198091E+01
          0                 2           2             7   13     1      -0.4129063332E-02       7   13    1        -0.2290891948E+00      0.3576178050E+00
          0                 3           2             4    7     1      -0.1857930849E+00       4    7    1        -0.9972196755E+01      0.2450735901E+02
          0                 4           2             4    7     1       0.1663062471E+00       5    6    1         0.9175852116E+01      0.2247666168E+02
          0                 5           2             4    7     1      -0.6651386361E-02       5    8    1        -0.3773720892E+00      0.9242740890E+00
          0                 6           1             4    7     1       0.8207508487E-04       5    8    1         0.4787278677E-02      0.1172862357E-01

    ------------------------------------------------
       NWT REQUIRED            6 OUTER ITERATIONS 
       AND A TOTAL OF         11 INNER ITERATIONS.
    ------------------------------------------------

 NO OUTPUT CONTROL FOR STRESS PERIOD   32   TIME STEP   16
 
 SOLVING FOR HEAD 
                                                   Max.-Head-Change                         Max.-Flux-Residual
  Residual-Control   Outer-Iter.   Inner-Iter.     Column Row Layer    Maximum-Head-Change  Column Row Layer    Maximum-Flux-Residual          L2-NORM 
          0                 1           2             5    8     1       0.1812274455E-01       4   13    1         0.9794620648E+00      0.2825236627E+01
          0                 2           2             7   13     1      -0.4139267388E-02       7   13    1        -0.2296529841E+00      0.3607176703E+00
          0                 3           2             4    7     1      -0.1857944796E+00       4    7    1        -0.9972270437E+01      0.2450766529E+02
          0                 4           2             4    7     1       0.1663063673E+00       5    6    1         0.9175854243E+01      0.2247666860E+02
          0                 5           2             4    7     1      -0.6651391151E-02       5    8    1        -0.3773721786E+00      0.9242742461E+00
          0                 6           1             4    7     1       0.8207514390E-04       5    8    1         0.4787279790E-02      0.1172860388E-01

    ------------------------------------------------
       NWT REQUIRED            6 OUTER ITERATIONS 
       AND A TOTAL OF         11 INNER ITERATIONS.
    ------------------------------------------------

 NO OUTPUT CONTROL FOR STRESS PERIOD   32   TIME STEP   17
 
 SOLVING FOR HEAD 
                                                   Max.-Head-Change                         Max.-Flux-Residual
  Residual-Control   Outer-Iter.   Inner-Iter.     Column Row Layer    Maximum-Head-Change  Column Row Layer    Maximum-Flux-Residual          L2-NORM 
          0                 1           2             5    8     1       0.1830564683E-01       4   13    1         0.9952634313E+00      0.2860407088E+01
          0                 2           2             7   13     1      -0.4149231020E-02       7   13    1        -0.2302034830E+00      0.3636832117E+00
          0                 3           2             4    7     1      -0.1857958456E+00       4    7    1        -0.9972342432E+01      0.2450796111E+02
          0                 4           2             4    7     1       0.1663065058E+00       5    6    1         0.9175857605E+01      0.2247667827E+02
          0                 5           2             4    7     1      -0.6651398770E-02       5    8    1        -0.3773724380E+00      0.9242748099E+00
          0                 6           1             4    7     1       0.8207523799E-04       5    8    1         0.4787283063E-02      0.1172858465E-01

    ------------------------------------------------
       NWT REQUIRED            6 OUTER ITERATIONS 
       AND A TOTAL OF         11 INNER ITERATIONS.
    ------------------------------------------------

 NO OUTPUT CONTROL FOR STRESS PERIOD   32   TIME STEP   18
 
 SOLVING FOR HEAD 
                                                   Max.-Head-Change                         Max.-Flux-Residual
  Residual-Control   Outer-Iter.   Inner-Iter.     Column Row Layer    Maximum-Head-Change  Column Row Layer    Maximum-Flux-Residual          L2-NORM 
          0                 1           2             5    8     1       0.1848039391E-01       4   13    1         0.1009662878E+01      0.2893796594E+01
          0                 2           2             7   13     1      -0.4158958108E-02       7   13    1        -0.2307409195E+00      0.3665190187E+00
          0                 3           2             4    7     1      -0.1857971502E+00       4    7    1        -0.9972410988E+01      0.2450824272E+02
          0                 4           2             4    7     1       0.1663066212E+00       5    6    1         0.9175859916E+01      0.2247668509E+02
          0                 5           2             4    7     1      -0.6651401272E-02       5    8    1        -0.3773724157E+00      0.9242746776E+00
          0                 6           1             4    7     1       0.8207526902E-04       5    8    1         0.4787282757E-02      0.1172856752E-01

    ------------------------------------------------
       NWT REQUIRED            6 OUTER ITERATIONS 
       AND A TOTAL OF         11 INNER ITERATIONS.
    ------------------------------------------------

 NO OUTPUT CONTROL FOR STRESS PERIOD   32   TIME STEP   19
 
 SOLVING FOR HEAD 
                                                   Max.-Head-Change                         Max.-Flux-Residual
  Residual-Control   Outer-Iter.   Inner-Iter.     Column Row Layer    Maximum-Head-Change  Column Row Layer    Maximum-Flux-Residual          L2-NORM 
          0                 1           2             5    8     1       0.1864748993E-01       4   13    1         0.1022780784E+01      0.2925529116E+01
          0                 2           2             7   13     1      -0.4168479740E-02       7   13    1        -0.2312669972E+00      0.3692346704E+00
          0                 3           2             4    7     1      -0.1857984117E+00       4    7    1        -0.9972477106E+01      0.2450851313E+02
          0                 4           2             4    7     1       0.1663067344E+00       5    6    1         0.9175862303E+01      0.2247669187E+02
          0                 5           2             4    7     1      -0.6651405784E-02       5    8    1        -0.3773725156E+00      0.9242748336E+00
          0                 6           1             4    7     1       0.8207532447E-04       5    8    1         0.4787283985E-02      0.1172854321E-01

    ------------------------------------------------
       NWT REQUIRED            6 OUTER ITERATIONS 
       AND A TOTAL OF         11 INNER ITERATIONS.
    ------------------------------------------------

 NO OUTPUT CONTROL FOR STRESS PERIOD   32   TIME STEP   20
 
 SOLVING FOR HEAD 
                                                   Max.-Head-Change                         Max.-Flux-Residual
  Residual-Control   Outer-Iter.   Inner-Iter.     Column Row Layer    Maximum-Head-Change  Column Row Layer    Maximum-Flux-Residual          L2-NORM 
          0                 1           2             5    8     1       0.1880711633E-01       4   13    1         0.1034748104E+01      0.2955687496E+01
          0                 2           2             7   13     1      -0.4177777471E-02       7   13    1        -0.2317807064E+00      0.3718317741E+00
          0                 3           2             4    7     1      -0.1857996502E+00       4    7    1        -0.9972541881E+01      0.2450877526E+02
          0                 4           2             4    7     1       0.1663068660E+00       5    6    1         0.9175865886E+01      0.2247670136E+02
          0                 5           2             4    7     1      -0.6651413130E-02       5    8    1        -0.3773727841E+00      0.9242753991E+00
          0                 6           1             4    7     1       0.8207541509E-04       5    8    1         0.4787287368E-02      0.1172852770E-01

    ------------------------------------------------
       NWT REQUIRED            6 OUTER ITERATIONS 
       AND A TOTAL OF         11 INNER ITERATIONS.
    ------------------------------------------------

 NO OUTPUT CONTROL FOR STRESS PERIOD   32   TIME STEP   21
 
 SOLVING FOR HEAD 
                                                   Max.-Head-Change                         Max.-Flux-Residual
  Residual-Control   Outer-Iter.   Inner-Iter.     Column Row Layer    Maximum-Head-Change  Column Row Layer    Maximum-Flux-Residual          L2-NORM 
          0                 1           2             5    8     1       0.1896016023E-01       4   13    1         0.1045670433E+01      0.2984392217E+01
          0                 2           2             7   13     1      -0.4186862106E-02       7   13    1        -0.2322826202E+00      0.3743208869E+00
          0                 3           2             4    7     1      -0.1858008307E+00       4    7    1        -0.9972603434E+01      0.2450902477E+02
          0                 4           2             4    7     1       0.1663069747E+00       5    6    1         0.9175868382E+01      0.2247670743E+02
          0                 5           2             4    7     1      -0.6651415360E-02       5    8    1        -0.3773727692E+00      0.9242751585E+00
          0                 6           1             4    7     1       0.8207544265E-04       5    8    1         0.4787287169E-02      0.1172850849E-01

    ------------------------------------------------
       NWT REQUIRED            6 OUTER ITERATIONS 
       AND A TOTAL OF         11 INNER ITERATIONS.
    ------------------------------------------------

 NO OUTPUT CONTROL FOR STRESS PERIOD   32   TIME STEP   22
 
 SOLVING FOR HEAD 
                                                   Max.-Head-Change                         Max.-Flux-Residual
  Residual-Control   Outer-Iter.   Inner-Iter.     Column Row Layer    Maximum-Head-Change  Column Row Layer    Maximum-Flux-Residual          L2-NORM 
          0                 1           2             5    8     1       0.1910658689E-01       4   13    1         0.1055640901E+01      0.3011707065E+01
          0                 2           2             7   13     1      -0.4195755422E-02       7   13    1        -0.2327739763E+00      0.3767045491E+00
          0                 3           2             4    7     1      -0.1858019900E+00       4    7    1        -0.9972663749E+01      0.2450926724E+02
          0                 4           2             4    7     1       0.1663070888E+00       5    6    1         0.9175871344E+01      0.2247671502E+02
          0                 5           2             4    7     1      -0.6651419911E-02       5    8    1        -0.3773728927E+00      0.9242753659E+00
          0                 6           1             4    7     1       0.8207549910E-04       5    8    1         0.4787288707E-02      0.1172849093E-01

    ------------------------------------------------
       NWT REQUIRED            6 OUTER ITERATIONS 
       AND A TOTAL OF         11 INNER ITERATIONS.
    ------------------------------------------------

 NO OUTPUT CONTROL FOR STRESS PERIOD   32   TIME STEP   23
 
 SOLVING FOR HEAD 
                                                   Max.-Head-Change                         Max.-Flux-Residual
  Residual-Control   Outer-Iter.   Inner-Iter.     Column Row Layer    Maximum-Head-Change  Column Row Layer    Maximum-Flux-Residual          L2-NORM 
          0                 1           2             5    8     1       0.1924707598E-01       4   13    1         0.1064749861E+01      0.3037726808E+01
          0                 2           2             7   13     1      -0.4204433106E-02       7   13    1        -0.2332534180E+00      0.3789892208E+00
          0                 3           2             4    7     1      -0.1858031123E+00       4    7    1        -0.9972721996E+01      0.2450950045E+02
          0                 4           2             4    7     1       0.1663072008E+00       5    6    1         0.9175874338E+01      0.2247672301E+02
          0                 5           2             4    7     1      -0.6651424373E-02       5    8    1        -0.3773730173E+00      0.9242755898E+00
          0                 6           1             4    7     1       0.8207555377E-04       5    8    1         0.4787290265E-02      0.1172847583E-01

    ------------------------------------------------
       NWT REQUIRED            6 OUTER ITERATIONS 
       AND A TOTAL OF         11 INNER ITERATIONS.
    ------------------------------------------------

 NO OUTPUT CONTROL FOR STRESS PERIOD   32   TIME STEP   24
 
 SOLVING FOR HEAD 
                                                   Max.-Head-Change                         Max.-Flux-Residual
  Residual-Control   Outer-Iter.   Inner-Iter.     Column Row Layer    Maximum-Head-Change  Column Row Layer    Maximum-Flux-Residual          L2-NORM 
          0                 1           2             5    8     1       0.1938183679E-01       4   13    1         0.1073084658E+01      0.3062537383E+01
          0                 2           2             7   13     1      -0.4212934809E-02       7   13    1        -0.2337231067E+00      0.3811810216E+00
          0                 3           2             4    7     1      -0.1858041986E+00       4    7    1        -0.9972778238E+01      0.2450972530E+02
          0                 4           2             4    7     1       0.1663073105E+00       5    6    1         0.9175877353E+01      0.2247673041E+02
          0                 5           2             4    7     1      -0.6651428749E-02       5    8    1        -0.3773731427E+00      0.9242757977E+00
          0                 6           1             4    7     1       0.8207560776E-04       5    8    1         0.4787291829E-02      0.1172846668E-01

    ------------------------------------------------
       NWT REQUIRED            6 OUTER ITERATIONS 
       AND A TOTAL OF         11 INNER ITERATIONS.
    ------------------------------------------------

 NO OUTPUT CONTROL FOR STRESS PERIOD   32   TIME STEP   25
 
 SOLVING FOR HEAD 
                                                   Max.-Head-Change                         Max.-Flux-Residual
  Residual-Control   Outer-Iter.   Inner-Iter.     Column Row Layer    Maximum-Head-Change  Column Row Layer    Maximum-Flux-Residual          L2-NORM 
          0                 1           2             5    8     1       0.1951106069E-01       4   13    1         0.1080710520E+01      0.3086200196E+01
          0                 2           2             7   13     1      -0.4221245987E-02       7   13    1        -0.2341822748E+00      0.3832835596E+00
          0                 3           2             4    7     1      -0.1858052668E+00       4    7    1        -0.9972833434E+01      0.2450994414E+02
          0                 4           2             4    7     1       0.1663074258E+00       5    6    1         0.9175880807E+01      0.2247673873E+02
          0                 5           2             4    7     1      -0.6651435447E-02       5    8    1        -0.3773734052E+00      0.9242763144E+00
          0                 6           1             4    7     1       0.8207569087E-04       5    8    1         0.4787295125E-02      0.1172843902E-01

    ------------------------------------------------
       NWT REQUIRED            6 OUTER ITERATIONS 
       AND A TOTAL OF         11 INNER ITERATIONS.
    ------------------------------------------------

 NO OUTPUT CONTROL FOR STRESS PERIOD   32   TIME STEP   26
 
 SOLVING FOR HEAD 
                                                   Max.-Head-Change                         Max.-Flux-Residual
  Residual-Control   Outer-Iter.   Inner-Iter.     Column Row Layer    Maximum-Head-Change  Column Row Layer    Maximum-Flux-Residual          L2-NORM 
          0                 1           2             5    8     1       0.1963535568E-01       4   13    1         0.1087690504E+01      0.3108800456E+01
          0                 2           2             7   13     1      -0.4229401810E-02       7   13    1        -0.2346328482E+00      0.3853039647E+00
          0                 3           2             4    7     1      -0.1858063000E+00       4    7    1        -0.9972886687E+01      0.2451015506E+02
          0                 4           2             4    7     1       0.1663075259E+00       5    6    1         0.9175883551E+01      0.2247674519E+02
          0                 5           2             4    7     1      -0.6651437338E-02       5    8    1        -0.3773733999E+00      0.9242761983E+00
          0                 6           1             4    7     1       0.8207571395E-04       5    8    1         0.4787295037E-02      0.1172843302E-01

    ------------------------------------------------
       NWT REQUIRED            6 OUTER ITERATIONS 
       AND A TOTAL OF         11 INNER ITERATIONS.
    ------------------------------------------------

 NO OUTPUT CONTROL FOR STRESS PERIOD   32   TIME STEP   27
 
 SOLVING FOR HEAD 
                                                   Max.-Head-Change                         Max.-Flux-Residual
  Residual-Control   Outer-Iter.   Inner-Iter.     Column Row Layer    Maximum-Head-Change  Column Row Layer    Maximum-Flux-Residual          L2-NORM 
          0                 1           2             5    8     1       0.1975471814E-01       4   13    1         0.1094088005E+01      0.3130392362E+01
          0                 2           2             7   13     1      -0.4237345238E-02       7   13    1        -0.2350716956E+00      0.3872437990E+00
          0                 3           2             4    7     1      -0.1858073177E+00       4    7    1        -0.9972939052E+01      0.2451036078E+02
          0                 4           2             4    7     1       0.1663076316E+00       5    6    1         0.9175886716E+01      0.2247675305E+02
          0                 5           2             4    7     1      -0.6651441553E-02       5    8    1        -0.3773735312E+00      0.9242764315E+00
          0                 6           1             4    7     1       0.8207576581E-04       5    8    1         0.4787296673E-02      0.1172842375E-01

    ------------------------------------------------
       NWT REQUIRED            6 OUTER ITERATIONS 
       AND A TOTAL OF         11 INNER ITERATIONS.
    ------------------------------------------------

 NO OUTPUT CONTROL FOR STRESS PERIOD   32   TIME STEP   28
 
 SOLVING FOR HEAD 
                                                   Max.-Head-Change                         Max.-Flux-Residual
  Residual-Control   Outer-Iter.   Inner-Iter.     Column Row Layer    Maximum-Head-Change  Column Row Layer    Maximum-Flux-Residual          L2-NORM 
          0                 1           2             5    8     1       0.1986957154E-01       4   13    1         0.1099958679E+01      0.3151044382E+01
          0                 2           2             7   13     1      -0.4245145548E-02       7   13    1        -0.2355026315E+00      0.3891098790E+00
          0                 3           2             4    7     1      -0.1858083019E+00       4    7    1        -0.9972989569E+01      0.2451055926E+02
          0                 4           2             4    7     1       0.1663077352E+00       5    6    1         0.9175889871E+01      0.2247676029E+02
          0                 5           2             4    7     1      -0.6651445683E-02       5    8    1        -0.3773736620E+00      0.9242766189E+00
          0                 6           1             4    7     1       0.8207581700E-04       5    8    1         0.4787298302E-02      0.1172839376E-01

    ------------------------------------------------
       NWT REQUIRED            6 OUTER ITERATIONS 
       AND A TOTAL OF         11 INNER ITERATIONS.
    ------------------------------------------------

 NO OUTPUT CONTROL FOR STRESS PERIOD   32   TIME STEP   29
 
 SOLVING FOR HEAD 
                                                   Max.-Head-Change                         Max.-Flux-Residual
  Residual-Control   Outer-Iter.   Inner-Iter.     Column Row Layer    Maximum-Head-Change  Column Row Layer    Maximum-Flux-Residual          L2-NORM 
          0                 1           2             5    8     1       0.1998017040E-01       4   13    1         0.1105345079E+01      0.3170811193E+01
          0                 2           2             7   13     1      -0.4252778872E-02       7   13    1        -0.2359243236E+00      0.3909051190E+00
          0                 3           2             4    7     1      -0.1858092541E+00       4    7    1        -0.9973038331E+01      0.2451075087E+02
          0                 4           2             4    7     1       0.1663078367E+00       5    6    1         0.9175893010E+01      0.2247676740E+02
          0                 5           2             4    7     1      -0.6651449728E-02       5    8    1        -0.3773737919E+00      0.9242768198E+00
          0                 6           1             4    7     1       0.8207586685E-04       5    8    1         0.4787299913E-02      0.1172839151E-01

    ------------------------------------------------
       NWT REQUIRED            6 OUTER ITERATIONS 
       AND A TOTAL OF         11 INNER ITERATIONS.
    ------------------------------------------------

 NO OUTPUT CONTROL FOR STRESS PERIOD   32   TIME STEP   30



 STREAM LISTING     PERIOD     32   STEP       30

 LAYER ROW COL. STREAM  RCH.  FLOW INTO     FLOW TO   FLOW OUT OF   OVRLND.     DIRECT     STREAM       STREAM     STREAM     STREAM   STREAMBED  STREAMBED
                SEG.NO.  NO.  STRM. RCH.    AQUIFER    STRM. RCH.    RUNOFF     PRECIP       ET          HEAD       DEPTH      WIDTH   CONDCTNC.   GRADIENT

   1    1    1     1     1    5.6248E+01  3.5874E-01   5.5890E+01  0.000E+00  0.000E+00  0.000E+00  1.09453E+03  1.479E+00  1.780E+01  8.009E-02  1.493E+00
   1    2    2     1     2    5.5890E+01  5.5549E-01   5.5334E+01  0.000E+00  0.000E+00  0.000E+00  1.08953E+03  1.473E+00  1.774E+01  1.242E-01  1.491E+00
   1    3    3     1     3    5.5334E+01  4.7367E-01   5.4860E+01  0.000E+00  0.000E+00  0.000E+00  1.08389E+03  1.467E+00  1.767E+01  1.060E-01  1.489E+00
   1    3    4     1     4    5.4860E+01  4.3612E-01   5.4424E+01  0.000E+00  0.000E+00  0.000E+00  1.07887E+03  1.461E+00  1.762E+01  9.777E-02  1.487E+00
   1    4    5     2     1    5.2424E+01  3.8056E-01   5.2044E+01  0.000E+00  0.000E+00  0.000E+00  1.07381E+03  1.879E+00  1.200E+01  7.800E-02  1.626E+00
   1    5    6     2     2    5.2044E+01  2.9230E-01   5.1751E+01  0.000E+00  0.000E+00  0.000E+00  1.06838E+03  1.872E+00  1.200E+01  6.000E-02  1.624E+00
   1    6    6     2     3    5.1751E+01  2.9192E-01   5.1459E+01  0.000E+00  0.000E+00  0.000E+00  1.06366E+03  1.865E+00  1.200E+01  6.000E-02  1.622E+00
   1    7    6     2     4    5.1459E+01  2.9154E-01   5.1168E+01  0.000E+00  0.000E+00  0.000E+00  1.05893E+03  1.859E+00  1.200E+01  6.000E-02  1.620E+00
   1    8    6     2     5    5.1168E+01  2.9116E-01   5.0877E+01  0.000E+00  0.000E+00  0.000E+00  1.05421E+03  1.853E+00  1.200E+01  6.000E-02  1.618E+00
   1    3    5     3     1    2.0000E+00  2.8252E-01   1.7175E+00  0.000E+00  0.000E+00  0.000E+00  1.07555E+03  1.909E+00  9.636E+00  7.227E-02  1.955E+00
   1    3    6     3     2    1.7175E+00  2.4905E-01   1.4684E+00  0.000E+00  0.000E+00  0.000E+00  1.07264E+03  1.727E+00  8.909E+00  6.682E-02  1.864E+00
   1    3    7     3     3    1.4684E+00  1.9718E-01   1.2712E+00  0.000E+00  0.000E+00  0.000E+00  1.06987E+03  1.555E+00  8.218E+00  5.547E-02  1.777E+00
   1    4    8     3     4    1.2712E+00  2.2567E-01   1.0456E+00  0.000E+00  0.000E+00  0.000E+00  1.06682E+03  1.364E+00  7.455E+00  6.709E-02  1.682E+00
   1    5    8     3     5    1.0456E+00  1.5790E-01   8.8768E-01  0.000E+00  0.000E+00  0.000E+00  1.06362E+03  1.164E+00  6.655E+00  4.991E-02  1.582E+00
   1    6    8     3     6    8.8768E-01  5.5980E-02   8.3170E-01  0.000E+00  0.000E+00  0.000E+00  1.06158E+03  1.036E+00  6.145E+00  1.844E-02  1.518E+00
   1    5   10     4     1    1.0000E+01  9.0919E-02   9.9091E+00  0.000E+00  0.000E+00  0.000E+00  1.07836E+03  6.368E-01  1.000E+01  2.500E-02  1.212E+00
   1    5    9     4     2    9.9091E+00  1.8158E-01   9.7275E+00  0.000E+00  0.000E+00  0.000E+00  1.07154E+03  6.315E-01  1.000E+01  5.000E-02  1.211E+00
   1    6    8     4     3    9.7275E+00  1.2689E-01   9.6006E+00  0.000E+00  0.000E+00  0.000E+00  1.06381E+03  6.256E-01  1.000E+01  3.500E-02  1.209E+00
   1    6    8     5     1    1.0432E+01  2.2686E-01   1.0205E+01  0.000E+00  0.000E+00  0.000E+00  1.05868E+03  6.790E-01  1.542E+01  6.166E-02  1.226E+00
   1    7    7     5     2    1.0205E+01  2.7894E-01   9.9265E+00  0.000E+00  0.000E+00  0.000E+00  1.05417E+03  6.732E-01  1.519E+01  7.594E-02  1.224E+00
   1    8    7     5     3    9.9265E+00  1.9221E-01   9.7343E+00  0.000E+00  0.000E+00  0.000E+00  1.04992E+03  6.676E-01  1.497E+01  5.241E-02  1.223E+00
   1    8    6     5     4    9.7343E+00  1.3577E-01   9.5985E+00  0.000E+00  0.000E+00  0.000E+00  1.04691E+03  6.637E-01  1.482E+01  3.706E-02  1.221E+00
   1    9    6     6     1    9.5985E+00  2.2097E-01   9.3776E+00  0.000E+00  0.000E+00  0.000E+00  1.04341E+03  6.828E-01  1.200E+01  6.000E-02  1.228E+00
   1   10    7     6     2    9.3776E+00  2.2039E-01   9.1572E+00  0.000E+00  0.000E+00  0.000E+00  1.03885E+03  6.732E-01  1.200E+01  6.000E-02  1.224E+00
   1   11    7     6     3    9.1572E+00  2.1981E-01   8.9374E+00  0.000E+00  0.000E+00  0.000E+00  1.03430E+03  6.636E-01  1.200E+01  6.000E-02  1.221E+00
   1   12    7     6     4    8.9374E+00  2.1923E-01   8.7181E+00  0.000E+00  0.000E+00  0.000E+00  1.02974E+03  6.539E-01  1.200E+01  6.000E-02  1.218E+00
   1   13    7     6     5    8.7181E+00 -9.9971E-02   8.8181E+00  0.000E+00  0.000E+00  0.000E+00  1.02656E+03  6.512E-01  1.200E+01  2.400E-01 -1.388E-01
   1   14    9     7     1    1.5000E+02  1.3426E+00   1.4866E+02  0.000E+00  0.000E+00  0.000E+00  1.03987E+03  2.288E+00  5.529E+01  5.593E-01  8.001E-01
   1   13    8     7     2    1.4866E+02  1.8560E+00   1.4680E+02  0.000E+00  0.000E+00  0.000E+00  1.03478E+03  2.279E+00  5.526E+01  6.148E-01  1.006E+00
   1   13    7     7     3    1.4680E+02  1.5149E+00   1.4529E+02  0.000E+00  0.000E+00  0.000E+00  1.02969E+03  2.270E+00  5.522E+01  5.584E-01  9.042E-01
   1   13    6     8     1    1.5410E+02  8.7264E-01   1.5323E+02  0.000E+00  0.000E+00  0.000E+00  1.02472E+03  2.842E+00  4.122E+01  4.200E-01  6.926E-01
   1   13    5     8     2    1.5323E+02  1.4777E-01   1.5308E+02  0.000E+00  0.000E+00  0.000E+00  1.01846E+03  2.839E+00  4.116E+01  4.195E-01  1.174E-01
   1   13    4     8     3    1.5308E+02 -2.5069E+00   1.5559E+02  0.000E+00  0.000E+00  0.000E+00  1.01222E+03  2.847E+00  4.128E+01  4.207E+00 -1.986E-01
   1   13    3     8     4    1.5559E+02 -3.7120E+00   1.5930E+02  0.000E+00  0.000E+00  0.000E+00  1.00599E+03  2.868E+00  4.159E+01  4.238E+00 -2.919E-01
   1   13    2     8     5    1.5930E+02 -2.6708E+00   1.6197E+02  0.000E+00  0.000E+00  0.000E+00  9.99765E+02  2.890E+00  4.191E+01  4.270E+00 -2.085E-01
   1   13    1     8     6    1.6197E+02 -2.0911E+00   1.6407E+02  0.000E+00  0.000E+00  0.000E+00  9.94781E+02  2.906E+00  4.214E+01  2.576E+00 -2.705E-01
   1    8    6     9     1    5.0877E+01  0.0000E+00   5.0877E+01  0.000E+00  0.000E+00  0.000E+00  1.08476E+03  6.014E+00  4.000E+00  0.000E+00  3.005E+00
   1    8    5     9     2    5.0877E+01  0.0000E+00   5.0877E+01  0.000E+00  0.000E+00  0.000E+00  1.08426E+03  6.014E+00  4.000E+00  0.000E+00  3.005E+00





UNSATURATED ZONE PACKAGE VOLUMETRIC BUDGET FOR  TIME STEP    30 STRESS PERIOD   32
  ------------------------------------------------------------------------------



     CUMULATIVE VOLUMES      L**3       RATES FOR THIS TIME STEP      L**3/T
     ------------------                 ------------------------

           IN:                                      IN:
           ---                                      ---
        INFILTRATION =  1340197906.1874          INFILTRATION =          60.7593

          OUT:                                     OUT:
          ----                                     ----
              UZF ET =  1113314286.4688                UZF ET =          60.8175
        UZF RECHARGE =       73224.0000          UZF RECHARGE =       0.0000E+00

            IN - OUT =   226810395.7187              IN - OUT =      -5.8170E-02

          STORAGE:                                 STORAGE:
          --------                                 --------
      STORAGE CHANGE =   226965513.2186        STORAGE CHANGE =      -5.8172E-02

 PERCENT DISCREPANCY IS DIFFERENCE BETWEEN IN-OUT MINUS CHANGE IN STORAGE
 DIVIDED BY THE AVERAGE OF IN AND OUT TIMES 100

 PERCENT DISCREPANCY =          -0.00     PERCENT DISCREPANCY =           0.00






1
  VOLUMETRIC BUDGET FOR AGRICULTURAL FIELDS AT  END OF TIME STEP   30, STRESS PERIOD  32
  ------------------------------------------------------------------------------

     CUMULATIVE VOLUMES      L**3       RATES FOR THIS TIME STEP      L**3/T
     ------------------                 ------------------------

           IN:                                      IN:
           ---                                      ---
           AG WELLS      =   443468864.0000             AG WELLS      =           9.0340
      DIVERSION SEGMENTS =   827597248.0000        DIVERSION SEGMENTS =          50.8768
           GW IRRIGATION =           0.0000             GW IRRIGATION =           0.0000
           SW IRRIGATION =           0.0000             SW IRRIGATION =           0.0000
        SYSTEM LOSSES GW =           0.0000          SYSTEM LOSSES GW =           0.0000
        SYSTEM LOSSES SW =           0.0000          SYSTEM LOSSES SW =           0.0000

                TOTAL IN =  1271066112.0000                  TOTAL IN =          59.9108

          OUT:                                     OUT:
          ----                                     ----
           AG WELLS      =           0.0000             AG WELLS      =           0.0000
      DIVERSION SEGMENTS =           0.0000        DIVERSION SEGMENTS =           0.0000
           GW IRRIGATION =   443468864.0000             GW IRRIGATION =           9.0340
           SW IRRIGATION =   827613760.0000             SW IRRIGATION =          50.8778
        SYSTEM LOSSES GW =           0.0000          SYSTEM LOSSES GW =           0.0000
        SYSTEM LOSSES SW =           0.0000          SYSTEM LOSSES SW =           0.0000

               TOTAL OUT =  1271082624.0000                 TOTAL OUT =          59.9118

                IN - OUT =      -16512.0000                  IN - OUT =      -1.0147E-03

     PERCENT DISCREPANCY =          -0.00         PERCENT DISCREPANCY =          -0.00



1
  VOLUMETRIC BUDGET FOR ENTIRE MODEL AT END OF TIME STEP   30, STRESS PERIOD  32
  ------------------------------------------------------------------------------

     CUMULATIVE VOLUMES      L**3       RATES FOR THIS TIME STEP      L**3/T
     ------------------                 ------------------------

           IN:                                      IN:
           ---                                      ---
             STORAGE     =   720543360.0000               STORAGE     =           8.1518
       CONSTANT HEAD     =           0.0000         CONSTANT HEAD     =           0.0000
     HEAD DEP BOUNDS     =    23330418.0000       HEAD DEP BOUNDS     =           0.2862
      STREAM LEAKAGE     =   979280384.0000        STREAM LEAKAGE     =          12.3872
        UZF RECHARGE     =       73223.9531          UZF RECHARGE     =           0.0000
               GW ET     =           0.0000                 GW ET     =           0.0000
     SURFACE LEAKAGE     =           0.0000       SURFACE LEAKAGE     =           0.0000
           AG WELLS      =           0.0000             AG WELLS      =           0.0000

                TOTAL IN =  1723227392.0000                  TOTAL IN =          20.8252

          OUT:                                     OUT:
          ----                                     ----
             STORAGE     =   375693120.0000               STORAGE     =           0.4215
       CONSTANT HEAD     =           0.0000         CONSTANT HEAD     =           0.0000
     HEAD DEP BOUNDS     =    23739612.0000       HEAD DEP BOUNDS     =           0.2885
      STREAM LEAKAGE     =   877515328.0000        STREAM LEAKAGE     =          11.0808
        UZF RECHARGE     =           0.0000          UZF RECHARGE     =           0.0000
               GW ET     =     2818101.5000                 GW ET     =           0.0000
     SURFACE LEAKAGE     =           0.0000       SURFACE LEAKAGE     =           0.0000
           AG WELLS      =   443468864.0000             AG WELLS      =           9.0340

               TOTAL OUT =  1723235072.0000                 TOTAL OUT =          20.8248

                IN - OUT =       -7680.0000                  IN - OUT =       4.1962E-04

     PERCENT DISCREPANCY =          -0.00         PERCENT DISCREPANCY =           0.00






         TIME SUMMARY AT END OF TIME STEP   30 IN STRESS PERIOD   32
                    SECONDS     MINUTES      HOURS       DAYS        YEARS
                    -----------------------------------------------------------
   TIME STEP LENGTH  87667.      1461.1      24.352      1.0147     2.77799E-03
 STRESS PERIOD TIME 2.63000E+06  43833.      730.56      30.440     8.33397E-02
         TOTAL TIME 8.16164E+07 1.36027E+06  22671.      944.63      2.5863    
1
1
                            STRESS PERIOD NO.   33, LENGTH =   2630000.    
                            -----------------------------------------------

                              NUMBER OF TIME STEPS =    30

                               MULTIPLIER FOR DELT =     1.000

                            INITIAL TIME STEP SIZE =   87666.66    

 REUSING NON-PARAMETER GHB CELLS FROM LAST STRESS PERIOD

      2 GHB CELLS

 REUSING STREAM SEGMENT DATA FROM LAST STRESS PERIOD



            AREAL INFILTRATION RATE
 READING ON UNIT   19 WITH FORMAT: (FREE)              

            1           2           3           4           5           6           7           8           9          10
 ........................................................................................................................
   1   1.0000E-10  2.0000E-10   0.000       0.000       0.000       0.000       0.000       0.000       0.000       0.000    
   2   2.0000E-10  1.0000E-10  2.0000E-10   0.000       0.000      8.0000E-10  8.0000E-10  5.0000E-10   0.000       0.000    
   3    0.000      5.0000E-10  1.0000E-10  1.0000E-10  8.0000E-10  8.0000E-10  5.0000E-10  5.0000E-10   0.000       0.000    
   4   8.0000E-10  5.0000E-10  1.0000E-10  1.0000E-10  1.0000E-10  1.0000E-10  1.0000E-10  1.0000E-10  2.0000E-10   0.000    
   5   8.0000E-10  5.0000E-10  1.0000E-10  1.0000E-10  1.0000E-10  1.0000E-10  1.0000E-10  1.0000E-10  1.0000E-10  1.0000E-10
   6   8.0000E-10  5.0000E-10  5.0000E-10  2.0000E-10  2.0000E-10  1.0000E-10  1.0000E-10  1.0000E-10  1.0000E-10  5.0000E-10
   7   8.0000E-10  5.0000E-10  5.0000E-10  2.0000E-10  2.0000E-10  1.0000E-10  1.0000E-10  2.0000E-10  2.0000E-10   0.000    
   8    0.000      5.0000E-10  5.0000E-10  2.0000E-10  2.0000E-10  1.0000E-10  1.0000E-10  2.0000E-10  5.0000E-10   0.000    
   9    0.000      5.0000E-10  5.0000E-10  2.0000E-10  2.0000E-10  1.0000E-10  1.0000E-10  2.0000E-10  5.0000E-10   0.000    
  10    0.000      5.0000E-10  5.0000E-10  2.0000E-10  2.0000E-10  1.0000E-10  1.0000E-10  2.0000E-10  5.0000E-10  8.0000E-10
  11    0.000      1.0000E-10  1.0000E-10  1.0000E-10  1.0000E-10  1.0000E-10  1.0000E-10  2.0000E-10  5.0000E-10   0.000    
  12   1.0000E-10  1.0000E-10  1.0000E-10  1.0000E-10  1.0000E-10  1.0000E-10  1.0000E-10  1.0000E-10  2.0000E-10   0.000    
  13   1.0000E-10  1.0000E-10  2.0000E-10  2.0000E-10  2.0000E-10  2.0000E-10  2.0000E-10  1.0000E-10  1.0000E-10   0.000    
  14    0.000      2.0000E-10  5.0000E-10  5.0000E-10  5.0000E-10  5.0000E-10  5.0000E-10  2.0000E-10  1.0000E-10   0.000    
  15    0.000       0.000      8.0000E-10  8.0000E-10  8.0000E-10  8.0000E-10   0.000       0.000       0.000       0.000    

                  ET RATE =  3.250000E-07

 USING ET EXTINCTION DEPTH FROM PREVIOUS STRESS PERIOD. CURRENT PERIOD IS:      33

 USING EXTINCTION WATER CONTENT FROM PREVIOUS STRESS PERIOD. CURRENT PERIOD IS:      33

 USING AIR ENTRY PRESSURE FROM PREVIOUS STRESS PERIOD. CURRENT PERIOD IS:      33

 USING ROOT PRESSURE HEAD FROM PREVIOUS STRESS PERIOD. CURRENT PERIOD IS:      33

 USING ROOT ACTIVITY FROM PREVIOUS STRESS PERIOD. CURRENT PERIOD IS:      33

 PROCESSING AG STRESS PERIOD DATA

 READING AG STRESS PERIOD DATA

 READING IRRIGATION SEGMENT

 READING IRRIGATION WELL

 READING SUPPLEMENTAL WELL

 END PROCESSING AG STRESS PERIOD DATA OPTIONS
 
 SOLVING FOR HEAD 
                                                   Max.-Head-Change                         Max.-Flux-Residual
  Residual-Control   Outer-Iter.   Inner-Iter.     Column Row Layer    Maximum-Head-Change  Column Row Layer    Maximum-Flux-Residual          L2-NORM 
          0                 1           2             5    8     1       0.2008598852E-01       5    8    1         0.1081792612E+01      0.2596221019E+01
          0                 2           2             5    8     1      -0.1953833063E-02       5    8    1        -0.1081802398E+00      0.2596078830E+00
          0                 3           2             5    8     1       0.1330486501E-03       5    8    1         0.7572610785E-02      0.1817116677E-01
          0                 4           1             5    8     1      -0.5294130730E-05       5    8    1        -0.3097202473E-03      0.7431135538E-03

    ------------------------------------------------
       NWT REQUIRED            4 OUTER ITERATIONS 
       AND A TOTAL OF          7 INNER ITERATIONS.
    ------------------------------------------------

 NO OUTPUT CONTROL FOR STRESS PERIOD   33   TIME STEP    1
 
 SOLVING FOR HEAD 
                                                   Max.-Head-Change                         Max.-Flux-Residual
  Residual-Control   Outer-Iter.   Inner-Iter.     Column Row Layer    Maximum-Head-Change  Column Row Layer    Maximum-Flux-Residual          L2-NORM 
          0                 1           2             5    8     1       0.1939530856E-01       5    8    1         0.1043798794E+01      0.2911947664E+01
          0                 2           2             7   13     1      -0.3321339178E-02       7   13    1        -0.1842819449E+00      0.3427780027E+00
          0                 3           2             4    7     1      -0.1508800240E+00       4    7    1        -0.8098260110E+01      0.1990032454E+02
          0                 4           2             4    7     1       0.1329834864E+00       5    6    1         0.7337256033E+01      0.1797302270E+02
          0                 5           2             4    7     1      -0.5323911788E-02       5    8    1        -0.3020478027E+00      0.7398072193E+00
          0                 6           1             4    7     1       0.6569469677E-04       5    8    1         0.3831747476E-02      0.9388759068E-02

    ------------------------------------------------
       NWT REQUIRED            6 OUTER ITERATIONS 
       AND A TOTAL OF         11 INNER ITERATIONS.
    ------------------------------------------------

 NO OUTPUT CONTROL FOR STRESS PERIOD   33   TIME STEP    2
 
 SOLVING FOR HEAD 
                                                   Max.-Head-Change                         Max.-Flux-Residual
  Residual-Control   Outer-Iter.   Inner-Iter.     Column Row Layer    Maximum-Head-Change  Column Row Layer    Maximum-Flux-Residual          L2-NORM 
          0                 1           2             5    8     1       0.1944693065E-01       5    8    1         0.1046556691E+01      0.2924208022E+01
          0                 2           2             7   13     1      -0.3328584458E-02       7   13    1        -0.1846822337E+00      0.3439867174E+00
          0                 3           2             4    7     1      -0.1508814351E+00       4    7    1        -0.8098334105E+01      0.1990057065E+02
          0                 4           2             4    7     1       0.1329835985E+00       5    6    1         0.7337261416E+01      0.1797303425E+02
          0                 5           2             4    7     1      -0.5323916254E-02       5    8    1        -0.3020480237E+00      0.7398075823E+00
          0                 6           1             4    7     1       0.6569475189E-04       5    8    1         0.3831750249E-02      0.9388745004E-02

    ------------------------------------------------
       NWT REQUIRED            6 OUTER ITERATIONS 
       AND A TOTAL OF         11 INNER ITERATIONS.
    ------------------------------------------------

 NO OUTPUT CONTROL FOR STRESS PERIOD   33   TIME STEP    3
 
 SOLVING FOR HEAD 
                                                   Max.-Head-Change                         Max.-Flux-Residual
  Residual-Control   Outer-Iter.   Inner-Iter.     Column Row Layer    Maximum-Head-Change  Column Row Layer    Maximum-Flux-Residual          L2-NORM 
          0                 1           2             5    8     1       0.1949739597E-01       5    8    1         0.1049251805E+01      0.2935975126E+01
          0                 2           2             7   13     1      -0.3335699991E-02       7   13    1        -0.1850753506E+00      0.3451536900E+00
          0                 3           2             4    7     1      -0.1508828170E+00       4    7    1        -0.8098406538E+01      0.1990081044E+02
          0                 4           2             4    7     1       0.1329837215E+00       5    6    1         0.7337267425E+01      0.1797304732E+02
          0                 5           2             4    7     1      -0.5323921153E-02       5    8    1        -0.3020482698E+00      0.7398080068E+00
          0                 6           1             4    7     1       0.6569481249E-04       5    8    1         0.3831753348E-02      0.9388728446E-02

    ------------------------------------------------
       NWT REQUIRED            6 OUTER ITERATIONS 
       AND A TOTAL OF         11 INNER ITERATIONS.
    ------------------------------------------------

 NO OUTPUT CONTROL FOR STRESS PERIOD   33   TIME STEP    4
 
 SOLVING FOR HEAD 
                                                   Max.-Head-Change                         Max.-Flux-Residual
  Residual-Control   Outer-Iter.   Inner-Iter.     Column Row Layer    Maximum-Head-Change  Column Row Layer    Maximum-Flux-Residual          L2-NORM 
          0                 1           2             5    8     1       0.1954631557E-01       5    8    1         0.1051863235E+01      0.2947269429E+01
          0                 2           2             7   13     1      -0.3342652781E-02       7   13    1        -0.1854594662E+00      0.3462788028E+00
          0                 3           2             4    7     1      -0.1508841707E+00       4    7    1        -0.8098477464E+01      0.1990104376E+02
          0                 4           2             4    7     1       0.1329838293E+00       5    6    1         0.7337272620E+01      0.1797305841E+02
          0                 5           2             4    7     1      -0.5323925452E-02       5    8    1        -0.3020484829E+00      0.7398083643E+00
          0                 6           1             4    7     1       0.6569486569E-04       5    8    1         0.3831756019E-02      0.9388717163E-02

    ------------------------------------------------
       NWT REQUIRED            6 OUTER ITERATIONS 
       AND A TOTAL OF         11 INNER ITERATIONS.
    ------------------------------------------------

 NO OUTPUT CONTROL FOR STRESS PERIOD   33   TIME STEP    5
 
 SOLVING FOR HEAD 
                                                   Max.-Head-Change                         Max.-Flux-Residual
  Residual-Control   Outer-Iter.   Inner-Iter.     Column Row Layer    Maximum-Head-Change  Column Row Layer    Maximum-Flux-Residual          L2-NORM 
          0                 1           2             5    8     1       0.1959419242E-01       5    8    1         0.1054418114E+01      0.2958126486E+01
          0                 2           2             7   13     1      -0.3349477964E-02       7   13    1        -0.1858365325E+00      0.3473649691E+00
          0                 3           2             4    7     1      -0.1508855139E+00       4    7    1        -0.8098547836E+01      0.1990127355E+02
          0                 4           2             4    7     1       0.1329839558E+00       5    6    1         0.7337278861E+01      0.1797307207E+02
          0                 5           2             4    7     1      -0.5323930490E-02       5    8    1        -0.3020487382E+00      0.7398088197E+00
          0                 6           1             4    7     1       0.6569492764E-04       5    8    1         0.3831759261E-02      0.9388701373E-02

    ------------------------------------------------
       NWT REQUIRED            6 OUTER ITERATIONS 
       AND A TOTAL OF         11 INNER ITERATIONS.
    ------------------------------------------------

 NO OUTPUT CONTROL FOR STRESS PERIOD   33   TIME STEP    6
 
 SOLVING FOR HEAD 
                                                   Max.-Head-Change                         Max.-Flux-Residual
  Residual-Control   Outer-Iter.   Inner-Iter.     Column Row Layer    Maximum-Head-Change  Column Row Layer    Maximum-Flux-Residual          L2-NORM 
          0                 1           2             5    8     1       0.1964077504E-01       5    8    1         0.1056903115E+01      0.2968560486E+01
          0                 2           2             7   13     1      -0.3356168230E-02       7   13    1        -0.1862061423E+00      0.3484141473E+00
          0                 3           2             4    7     1      -0.1508868110E+00       4    7    1        -0.8098615744E+01      0.1990149469E+02
          0                 4           2             4    7     1       0.1329840595E+00       5    6    1         0.7337283867E+01      0.1797308268E+02
          0                 5           2             4    7     1      -0.5323934623E-02       5    8    1        -0.3020489429E+00      0.7398091415E+00
          0                 6           1             4    7     1       0.6569497872E-04       5    8    1         0.3831761828E-02      0.9388670764E-02

    ------------------------------------------------
       NWT REQUIRED            6 OUTER ITERATIONS 
       AND A TOTAL OF         11 INNER ITERATIONS.
    ------------------------------------------------

 NO OUTPUT CONTROL FOR STRESS PERIOD   33   TIME STEP    7
 
 SOLVING FOR HEAD 
                                                   Max.-Head-Change                         Max.-Flux-Residual
  Residual-Control   Outer-Iter.   Inner-Iter.     Column Row Layer    Maximum-Head-Change  Column Row Layer    Maximum-Flux-Residual          L2-NORM 
          0                 1           2             5    8     1       0.1968626173E-01       5    8    1         0.1059328835E+01      0.2978609081E+01
          0                 2           2             7   13     1      -0.3362743827E-02       7   13    1        -0.1865694153E+00      0.3494298647E+00
          0                 3           2             4    7     1      -0.1508880798E+00       4    7    1        -0.8098682142E+01      0.1990171027E+02
          0                 4           2             4    7     1       0.1329841611E+00       5    6    1         0.7337288768E+01      0.1797309306E+02
          0                 5           2             4    7     1      -0.5323938672E-02       5    8    1        -0.3020491432E+00      0.7398094694E+00
          0                 6           1             4    7     1       0.6569502868E-04       5    8    1         0.3831764359E-02      0.9388676395E-02

    ------------------------------------------------
       NWT REQUIRED            6 OUTER ITERATIONS 
       AND A TOTAL OF         11 INNER ITERATIONS.
    ------------------------------------------------

 NO OUTPUT CONTROL FOR STRESS PERIOD   33   TIME STEP    8
 
 SOLVING FOR HEAD 
                                                   Max.-Head-Change                         Max.-Flux-Residual
  Residual-Control   Outer-Iter.   Inner-Iter.     Column Row Layer    Maximum-Head-Change  Column Row Layer    Maximum-Flux-Residual          L2-NORM 
          0                 1           2             5    8     1       0.1973069741E-01       5    8    1         0.1061697675E+01      0.2988286538E+01
          0                 2           2             7   13     1      -0.3369170603E-02       7   13    1        -0.1869244644E+00      0.3504119103E+00
          0                 3           2             4    7     1      -0.1508893380E+00       4    7    1        -0.8098747981E+01      0.1990192228E+02
          0                 4           2             4    7     1       0.1329842683E+00       5    6    1         0.7337293995E+01      0.1797310424E+02
          0                 5           2             4    7     1      -0.5323942943E-02       5    8    1        -0.3020493566E+00      0.7398098281E+00
          0                 6           1             4    7     1       0.6569508121E-04       5    8    1         0.3831767048E-02      0.9388672885E-02

    ------------------------------------------------
       NWT REQUIRED            6 OUTER ITERATIONS 
       AND A TOTAL OF         11 INNER ITERATIONS.
    ------------------------------------------------

 NO OUTPUT CONTROL FOR STRESS PERIOD   33   TIME STEP    9
 
 SOLVING FOR HEAD 
                                                   Max.-Head-Change                         Max.-Flux-Residual
  Residual-Control   Outer-Iter.   Inner-Iter.     Column Row Layer    Maximum-Head-Change  Column Row Layer    Maximum-Flux-Residual          L2-NORM 
          0                 1           2             5    8     1       0.1977398179E-01       5    8    1         0.1064004107E+01      0.2997612297E+01
          0                 2           2             7   13     1      -0.3375476841E-02       7   13    1        -0.1872728281E+00      0.3513630895E+00
          0                 3           2             4    7     1      -0.1508905854E+00       4    7    1        -0.8098813257E+01      0.1990213098E+02
          0                 4           2             4    7     1       0.1329843811E+00       5    6    1         0.7337299538E+01      0.1797311622E+02
          0                 5           2             4    7     1      -0.5323947438E-02       5    8    1        -0.3020495832E+00      0.7398102093E+00
          0                 6           1             4    7     1       0.6569513666E-04       5    8    1         0.3831769902E-02      0.9388635018E-02

    ------------------------------------------------
       NWT REQUIRED            6 OUTER ITERATIONS 
       AND A TOTAL OF         11 INNER ITERATIONS.
    ------------------------------------------------

 NO OUTPUT CONTROL FOR STRESS PERIOD   33   TIME STEP   10
 
 SOLVING FOR HEAD 
                                                   Max.-Head-Change                         Max.-Flux-Residual
  Residual-Control   Outer-Iter.   Inner-Iter.     Column Row Layer    Maximum-Head-Change  Column Row Layer    Maximum-Flux-Residual          L2-NORM 
          0                 1           2             5    8     1       0.1981630369E-01       5    8    1         0.1066258682E+01      0.3006606157E+01
          0                 2           2             7   13     1      -0.3381676672E-02       7   13    1        -0.1876153321E+00      0.3522834662E+00
          0                 3           2             4    7     1      -0.1508918044E+00       4    7    1        -0.8098877016E+01      0.1990233423E+02
          0                 4           2             4    7     1       0.1329844917E+00       5    6    1         0.7337304988E+01      0.1797312794E+02
          0                 5           2             4    7     1      -0.5323951847E-02       5    8    1        -0.3020498053E+00      0.7398106131E+00
          0                 6           1             4    7     1       0.6569519121E-04       5    8    1         0.3831772693E-02      0.9388642332E-02

    ------------------------------------------------
       NWT REQUIRED            6 OUTER ITERATIONS 
       AND A TOTAL OF         11 INNER ITERATIONS.
    ------------------------------------------------

 NO OUTPUT CONTROL FOR STRESS PERIOD   33   TIME STEP   11
 
 SOLVING FOR HEAD 
                                                   Max.-Head-Change                         Max.-Flux-Residual
  Residual-Control   Outer-Iter.   Inner-Iter.     Column Row Layer    Maximum-Head-Change  Column Row Layer    Maximum-Flux-Residual          L2-NORM 
          0                 1           2             5    8     1       0.1985755843E-01       5    8    1         0.1068455421E+01      0.3015289318E+01
          0                 2           2             7   13     1      -0.3387763454E-02       7   13    1        -0.1879515849E+00      0.3531762156E+00
          0                 3           2             4    7     1      -0.1508929948E+00       4    7    1        -0.8098939252E+01      0.1990253207E+02
          0                 4           2             4    7     1       0.1329845873E+00       5    6    1         0.7337309612E+01      0.1797313768E+02
          0                 5           2             4    7     1      -0.5323955657E-02       5    8    1        -0.3020499938E+00      0.7398109205E+00
          0                 6           1             4    7     1       0.6569523848E-04       5    8    1         0.3831775070E-02      0.9388629971E-02

    ------------------------------------------------
       NWT REQUIRED            6 OUTER ITERATIONS 
       AND A TOTAL OF         11 INNER ITERATIONS.
    ------------------------------------------------

 NO OUTPUT CONTROL FOR STRESS PERIOD   33   TIME STEP   12
 
 SOLVING FOR HEAD 
                                                   Max.-Head-Change                         Max.-Flux-Residual
  Residual-Control   Outer-Iter.   Inner-Iter.     Column Row Layer    Maximum-Head-Change  Column Row Layer    Maximum-Flux-Residual          L2-NORM 
          0                 1           2             5    8     1       0.1989792919E-01       5    8    1         0.1070604670E+01      0.3023676634E+01
          0                 2           2             7   13     1      -0.3393725851E-02       7   13    1        -0.1882809495E+00      0.3540417433E+00
          0                 3           2             4    7     1      -0.1508941565E+00       4    7    1        -0.8098999961E+01      0.1990272464E+02
          0                 4           2             4    7     1       0.1329846808E+00       5    6    1         0.7337314131E+01      0.1797314717E+02
          0                 5           2             4    7     1      -0.5323959382E-02       5    8    1        -0.3020501779E+00      0.7398112123E+00
          0                 6           1             4    7     1       0.6569528430E-04       5    8    1         0.3831777401E-02      0.9388609709E-02

    ------------------------------------------------
       NWT REQUIRED            6 OUTER ITERATIONS 
       AND A TOTAL OF         11 INNER ITERATIONS.
    ------------------------------------------------

 NO OUTPUT CONTROL FOR STRESS PERIOD   33   TIME STEP   13
 
 SOLVING FOR HEAD 
                                                   Max.-Head-Change                         Max.-Flux-Residual
  Residual-Control   Outer-Iter.   Inner-Iter.     Column Row Layer    Maximum-Head-Change  Column Row Layer    Maximum-Flux-Residual          L2-NORM 
          0                 1           2             5    8     1       0.1993744969E-01       5    8    1         0.1072708027E+01      0.3031787443E+01
          0                 2           2             7   13     1      -0.3399583997E-02       7   13    1        -0.1886045599E+00      0.3548829195E+00
          0                 3           2             4    7     1      -0.1508953072E+00       4    7    1        -0.8099060095E+01      0.1990291413E+02
          0                 4           2             4    7     1       0.1329847798E+00       5    6    1         0.7337318962E+01      0.1797315743E+02
          0                 5           2             4    7     1      -0.5323963328E-02       5    8    1        -0.3020503747E+00      0.7398115454E+00
          0                 6           1             4    7     1       0.6569533314E-04       5    8    1         0.3831779877E-02      0.9388604450E-02

    ------------------------------------------------
       NWT REQUIRED            6 OUTER ITERATIONS 
       AND A TOTAL OF         11 INNER ITERATIONS.
    ------------------------------------------------

 NO OUTPUT CONTROL FOR STRESS PERIOD   33   TIME STEP   14
 
 SOLVING FOR HEAD 
                                                   Max.-Head-Change                         Max.-Flux-Residual
  Residual-Control   Outer-Iter.   Inner-Iter.     Column Row Layer    Maximum-Head-Change  Column Row Layer    Maximum-Flux-Residual          L2-NORM 
          0                 1           2             5    8     1       0.1997600736E-01       5    8    1         0.1074759386E+01      0.3039633594E+01
          0                 2           2             7   13     1      -0.3405333056E-02       7   13    1        -0.1889221487E+00      0.3556993174E+00
          0                 3           2             4    7     1      -0.1508964469E+00       4    7    1        -0.8099119650E+01      0.1990310089E+02
          0                 4           2             4    7     1       0.1329848844E+00       5    6    1         0.7337324110E+01      0.1797316848E+02
          0                 5           2             4    7     1      -0.5323967496E-02       5    8    1        -0.3020505846E+00      0.7398119031E+00
          0                 6           1             4    7     1       0.6569538466E-04       5    8    1         0.3831782506E-02      0.9388598741E-02

    ------------------------------------------------
       NWT REQUIRED            6 OUTER ITERATIONS 
       AND A TOTAL OF         11 INNER ITERATIONS.
    ------------------------------------------------

 NO OUTPUT CONTROL FOR STRESS PERIOD   33   TIME STEP   15
 
 SOLVING FOR HEAD 
                                                   Max.-Head-Change                         Max.-Flux-Residual
  Residual-Control   Outer-Iter.   Inner-Iter.     Column Row Layer    Maximum-Head-Change  Column Row Layer    Maximum-Flux-Residual          L2-NORM 
          0                 1           2             5    8     1       0.2001378692E-01       5    8    1         0.1076768659E+01      0.3047227759E+01
          0                 2           2             7   13     1      -0.3410995612E-02       7   13    1        -0.1892349431E+00      0.3564928411E+00
          0                 3           2             4    7     1      -0.1508975577E+00       4    7    1        -0.8099177667E+01      0.1990328250E+02
          0                 4           2             4    7     1       0.1329849739E+00       5    6    1         0.7337328436E+01      0.1797317753E+02
          0                 5           2             4    7     1      -0.5323971063E-02       5    8    1        -0.3020507604E+00      0.7398121857E+00
          0                 6           1             4    7     1       0.6569542869E-04       5    8    1         0.3831784715E-02      0.9388578897E-02

    ------------------------------------------------
       NWT REQUIRED            6 OUTER ITERATIONS 
       AND A TOTAL OF         11 INNER ITERATIONS.
    ------------------------------------------------

 NO OUTPUT CONTROL FOR STRESS PERIOD   33   TIME STEP   16
 
 SOLVING FOR HEAD 
                                                   Max.-Head-Change                         Max.-Flux-Residual
  Residual-Control   Outer-Iter.   Inner-Iter.     Column Row Layer    Maximum-Head-Change  Column Row Layer    Maximum-Flux-Residual          L2-NORM 
          0                 1           2             5    8     1       0.1323921266E+00       5    8    1         0.7279446804E+01      0.7820301094E+01
          0                 2           2             5    8     1       0.5625603853E-01       5    8    1         0.3107976060E+01      0.3126519923E+01
          0                 3           2             4    7     1      -0.1508873293E+00       4    7    1        -0.8099235159E+01      0.1940538234E+02
          0                 4           2             4    7     1       0.1329560457E+00       5    6    1         0.7337333677E+01      0.1680798095E+02
          0                 5           2             5    8     1       0.3029814547E-01       5    8    1         0.1776723404E+01      0.1900744117E+01
          0                 6           2             5    8     1       0.1381762128E-01       5    8    1         0.8058083688E+00      0.8058625134E+00
          0                 7           2             5    8     1       0.6301524979E-02       5    8    1         0.3675284362E+00      0.3675302654E+00
          0                 8           1             5    8     1       0.2873777400E-02       5    8    1         0.1676085778E+00      0.1676093275E+00
          0                 9           1             5    8     1       0.1310556172E-02       5    8    1         0.7643544753E-01      0.7643578824E-01
          0                10           1             5    8     1       0.5976586253E-03       5    8    1         0.3485686100E-01      0.3485701636E-01
                                                   Max.-Head-Change                         Max.-Flux-Residual
  Residual-Control   Outer-Iter.   Inner-Iter.     Column Row Layer    Maximum-Head-Change  Column Row Layer    Maximum-Flux-Residual          L2-NORM 
          0                11           1             5    8     1       0.2725497400E-03       5    8    1         0.1589559248E-01      0.1589566332E-01
          0                12           1             5    8     1       0.1242891959E-03       5    8    1         0.7248700762E-02      0.7248733065E-02
          0                13           1             5    8     1       0.5667819475E-04       5    8    1         0.3305511242E-02      0.3305526028E-02

    ------------------------------------------------
       NWT REQUIRED           13 OUTER ITERATIONS 
       AND A TOTAL OF         20 INNER ITERATIONS.
    ------------------------------------------------

 NO OUTPUT CONTROL FOR STRESS PERIOD   33   TIME STEP   17
 
 SOLVING FOR HEAD 
                                                   Max.-Head-Change                         Max.-Flux-Residual
  Residual-Control   Outer-Iter.   Inner-Iter.     Column Row Layer    Maximum-Head-Change  Column Row Layer    Maximum-Flux-Residual          L2-NORM 
          0                 1           2             5    8     1       0.2947433379E+00       5    8    1         0.1623104217E+02      0.1650372481E+02
          0                 2           2             5    8     1       0.1252721998E+00       5    8    1         0.6918720608E+01      0.6927632032E+01
          0                 3           2             4    7     1      -0.1508732324E+00       4    7    1        -0.8099255920E+01      0.1889765900E+02
          0                 4           2             4    7     1       0.1329616981E+00       5    6    1         0.7337336029E+01      0.1697711993E+02
          0                 5           2             5    8     1       0.3587709514E-01       5    8    1         0.2102321228E+01      0.2208125852E+01
          0                 6           2             5    8     1       0.1636077968E-01       5    8    1         0.9542257679E+00      0.9542723552E+00
          0                 7           2             5    8     1       0.7460808409E-02       5    8    1         0.4351813324E+00      0.4351831264E+00
          0                 8           1             5    8     1       0.3402223782E-02       5    8    1         0.1984471333E+00      0.1984478720E+00
          0                 9           1             5    8     1       0.1551439774E-02       5    8    1         0.9049257654E-01      0.9049291231E-01
          0                10           1             5    8     1       0.7074601864E-03       5    8    1         0.4126444058E-01      0.4126459367E-01
                                                   Max.-Head-Change                         Max.-Flux-Residual
  Residual-Control   Outer-Iter.   Inner-Iter.     Column Row Layer    Maximum-Head-Change  Column Row Layer    Maximum-Flux-Residual          L2-NORM 
          0                11           1             5    8     1       0.3225998172E-03       5    8    1         0.1881628777E-01      0.1881635757E-01
          0                12           1             5    8     1       0.1471029072E-03       5    8    1         0.8579992996E-02      0.8580024866E-02
          0                13           1             5    8     1       0.6707696726E-04       5    8    1         0.3912325082E-02      0.3912339635E-02

    ------------------------------------------------
       NWT REQUIRED           13 OUTER ITERATIONS 
       AND A TOTAL OF         20 INNER ITERATIONS.
    ------------------------------------------------

 NO OUTPUT CONTROL FOR STRESS PERIOD   33   TIME STEP   18
 
 SOLVING FOR HEAD 
                                                   Max.-Head-Change                         Max.-Flux-Residual
  Residual-Control   Outer-Iter.   Inner-Iter.     Column Row Layer    Maximum-Head-Change  Column Row Layer    Maximum-Flux-Residual          L2-NORM 
          0                 1           2             5    8     1       0.2648655243E+00       5    8    1         0.1455906094E+02      0.1495262886E+02
          0                 2           2             5    8     1       0.1127465782E+00       5    8    1         0.6226135440E+01      0.6238389351E+01
          0                 3           2             4    7     1      -0.1508737621E+00       4    7    1        -0.8099192624E+01      0.1897787809E+02
          0                 4           2             4    7     1       0.1329612276E+00       5    6    1         0.7337336509E+01      0.1694441826E+02
          0                 5           2             5    8     1       0.3487705009E-01       5    8    1         0.2042637170E+01      0.2151376191E+01
          0                 6           2             5    8     1       0.1591446018E-01       5    8    1         0.9276718524E+00      0.9277193520E+00
          0                 7           2             5    8     1       0.7261722656E-02       5    8    1         0.4233315804E+00      0.4233332680E+00
          0                 8           1             5    8     1       0.3313466105E-02       5    8    1         0.1931618447E+00      0.1931625353E+00
          0                 9           1             5    8     1       0.1511891001E-02       5    8    1         0.8813643110E-01      0.8813674505E-01
          0                10           1             5    8     1       0.6898481145E-03       5    8    1         0.4021466215E-01      0.4021480537E-01
                                                   Max.-Head-Change                         Max.-Flux-Residual
  Residual-Control   Outer-Iter.   Inner-Iter.     Column Row Layer    Maximum-Head-Change  Column Row Layer    Maximum-Flux-Residual          L2-NORM 
          0                11           1             5    8     1       0.3147614369E-03       5    8    1         0.1834882893E-01      0.1834889427E-01
          0                12           1             5    8     1       0.1436165827E-03       5    8    1         0.8371962569E-02      0.8371992383E-02
          0                13           1             5    8     1       0.6552736284E-04       5    8    1         0.3819805236E-02      0.3819818840E-02

    ------------------------------------------------
       NWT REQUIRED           13 OUTER ITERATIONS 
       AND A TOTAL OF         20 INNER ITERATIONS.
    ------------------------------------------------

 NO OUTPUT CONTROL FOR STRESS PERIOD   33   TIME STEP   19
 
 SOLVING FOR HEAD 
                                                   Max.-Head-Change                         Max.-Flux-Residual
  Residual-Control   Outer-Iter.   Inner-Iter.     Column Row Layer    Maximum-Head-Change  Column Row Layer    Maximum-Flux-Residual          L2-NORM 
          0                 1           2             5    8     1       0.1322436745E+00       5    8    1         0.7215748062E+01      0.8179002540E+01
          0                 2           2             5    8     1       0.8285174615E-02       5    8    1         0.4651541146E+00      0.6321000315E+00
          0                 3           2             4    7     1      -0.1508927462E+00       4    7    1        -0.8099064195E+01      0.1989008708E+02
          0                 4           2             4    7     1       0.1329750122E+00       5    6    1         0.7337334495E+01      0.1747511140E+02
          0                 5           2             5    8     1       0.1209439498E-01       5    8    1         0.7144262058E+00      0.9830854458E+00
          0                 6           1             5    8     1       0.1369663716E-02       5    8    1         0.7972676619E-01      0.8021566338E-01
          0                 7           1             5    8     1       0.1551015726E-03       5    8    1         0.9038733233E-02      0.9041050753E-02
          0                 8           1             5    8     1       0.1756249467E-04       5    8    1         0.1023620019E-02      0.1023707736E-02

    ------------------------------------------------
       NWT REQUIRED            8 OUTER ITERATIONS 
       AND A TOTAL OF         13 INNER ITERATIONS.
    ------------------------------------------------

 NO OUTPUT CONTROL FOR STRESS PERIOD   33   TIME STEP   20
 
 SOLVING FOR HEAD 
                                                   Max.-Head-Change                         Max.-Flux-Residual
  Residual-Control   Outer-Iter.   Inner-Iter.     Column Row Layer    Maximum-Head-Change  Column Row Layer    Maximum-Flux-Residual          L2-NORM 
          0                 1           2             5    8     1      -0.5442506295E-01       5    8    1        -0.3086010439E+01      0.5007531626E+01
          0                 2           2             5    8     1       0.5218931084E-02       5    8    1         0.3043883166E+00      0.5321934847E+00
          0                 3           2             4    7     1      -0.1508908532E+00       5    8    1        -0.8127875963E+01      0.1991013285E+02
          0                 4           2             4    7     1       0.1329851852E+00       5    7    1         0.7340498851E+01      0.1787833195E+02
          0                 5           2             4    7     1      -0.5323980099E-02       4    8    1        -0.3052341428E+00      0.6835625337E+00
          0                 6           1             4    7     1       0.6569553510E-04       4    8    1         0.3910401053E-02      0.8774383505E-02

    ------------------------------------------------
       NWT REQUIRED            6 OUTER ITERATIONS 
       AND A TOTAL OF         11 INNER ITERATIONS.
    ------------------------------------------------

 NO OUTPUT CONTROL FOR STRESS PERIOD   33   TIME STEP   21
 
 SOLVING FOR HEAD 
                                                   Max.-Head-Change                         Max.-Flux-Residual
  Residual-Control   Outer-Iter.   Inner-Iter.     Column Row Layer    Maximum-Head-Change  Column Row Layer    Maximum-Flux-Residual          L2-NORM 
          0                 1           2             5    8     1      -0.4920317045E-01       5    8    1        -0.2791719843E+01      0.4724870287E+01
          0                 2           2             5    8     1       0.4753856734E-02       5    8    1         0.2773917529E+00      0.5072936844E+00
          0                 3           2             4    7     1      -0.1508895537E+00       5    8    1        -0.8126059597E+01      0.1991003173E+02
          0                 4           2             4    7     1       0.1329851804E+00       5    7    1         0.7340555463E+01      0.1787834214E+02
          0                 5           2             4    7     1      -0.5323979926E-02       4    8    1        -0.3052352488E+00      0.6835632264E+00
          0                 6           1             4    7     1       0.6569553342E-04       4    8    1         0.3910402808E-02      0.8774335686E-02

    ------------------------------------------------
       NWT REQUIRED            6 OUTER ITERATIONS 
       AND A TOTAL OF         11 INNER ITERATIONS.
    ------------------------------------------------

 NO OUTPUT CONTROL FOR STRESS PERIOD   33   TIME STEP   22
 
 SOLVING FOR HEAD 
                                                   Max.-Head-Change                         Max.-Flux-Residual
  Residual-Control   Outer-Iter.   Inner-Iter.     Column Row Layer    Maximum-Head-Change  Column Row Layer    Maximum-Flux-Residual          L2-NORM 
          0                 1           2             5    8     1      -0.4434411952E-01       5    8    1        -0.2518068171E+01      0.4475134778E+01
          0                 2           2             5    8     1       0.4281257160E-02       5    8    1         0.2500303623E+00      0.4842610565E+00
          0                 3           2             4    7     1      -0.1508886734E+00       5    8    1        -0.8124216742E+01      0.1990987572E+02
          0                 4           2             4    7     1       0.1329851962E+00       5    7    1         0.7340606853E+01      0.1787835061E+02
          0                 5           2             4    7     1      -0.5323980569E-02       4    8    1        -0.3052362537E+00      0.6835640430E+00
          0                 6           1             4    7     1       0.6569554115E-04       4    8    1         0.3910404127E-02      0.8774314158E-02

    ------------------------------------------------
       NWT REQUIRED            6 OUTER ITERATIONS 
       AND A TOTAL OF         11 INNER ITERATIONS.
    ------------------------------------------------

 NO OUTPUT CONTROL FOR STRESS PERIOD   33   TIME STEP   23
 
 SOLVING FOR HEAD 
                                                   Max.-Head-Change                         Max.-Flux-Residual
  Residual-Control   Outer-Iter.   Inner-Iter.     Column Row Layer    Maximum-Head-Change  Column Row Layer    Maximum-Flux-Residual          L2-NORM 
          0                 1           2             5    8     1      -0.3985840538E-01       5    8    1        -0.2265574562E+01      0.4256590316E+01
          0                 2           2             5    8     1       0.3844964391E-02       5    8    1         0.2247841675E+00      0.4642845222E+00
          0                 3           2             4    7     1      -0.1508881608E+00       5    8    1        -0.8122521004E+01      0.1990973916E+02
          0                 4           2             4    7     1       0.1329852308E+00       5    7    1         0.7340653643E+01      0.1787835965E+02
          0                 5           2             4    7     1      -0.5323981960E-02       4    8    1        -0.3052371743E+00      0.6835648337E+00
          0                 6           1             4    7     1       0.6569555818E-04       4    8    1         0.3910405194E-02      0.8774298117E-02

    ------------------------------------------------
       NWT REQUIRED            6 OUTER ITERATIONS 
       AND A TOTAL OF         11 INNER ITERATIONS.
    ------------------------------------------------

 NO OUTPUT CONTROL FOR STRESS PERIOD   33   TIME STEP   24
 
 SOLVING FOR HEAD 
                                                   Max.-Head-Change                         Max.-Flux-Residual
  Residual-Control   Outer-Iter.   Inner-Iter.     Column Row Layer    Maximum-Head-Change  Column Row Layer    Maximum-Flux-Residual          L2-NORM 
          0                 1           2             5    8     1      -0.3571481601E-01       5    8    1        -0.2032461793E+01      0.4066170230E+01
          0                 2           2             7   13     1      -0.3457696056E-02       5    8    1         0.2014755433E+00      0.4470354650E+00
          0                 3           2             4    7     1      -0.1508879685E+00       5    8    1        -0.8120959946E+01      0.1990962038E+02
          0                 4           2             4    7     1       0.1329852697E+00       5    7    1         0.7340695603E+01      0.1787835153E+02
          0                 5           2             4    7     1      -0.5323983515E-02       4    8    1        -0.3052038288E+00      0.6835444231E+00
          0                 6           1             4    7     1       0.6569557755E-04       5    7    1         0.3909978449E-02      0.8773643650E-02

    ------------------------------------------------
       NWT REQUIRED            6 OUTER ITERATIONS 
       AND A TOTAL OF         11 INNER ITERATIONS.
    ------------------------------------------------

 NO OUTPUT CONTROL FOR STRESS PERIOD   33   TIME STEP   25
 
 SOLVING FOR HEAD 
                                                   Max.-Head-Change                         Max.-Flux-Residual
  Residual-Control   Outer-Iter.   Inner-Iter.     Column Row Layer    Maximum-Head-Change  Column Row Layer    Maximum-Flux-Residual          L2-NORM 
          0                 1           2             5    8     1      -0.3188548031E-01       5    8    1        -0.1817143042E+01      0.3901048288E+01
          0                 2           2             7   13     1      -0.3462481524E-02       7   13    1        -0.1920789955E+00      0.4322159541E+00
          0                 3           2             4    7     1      -0.1508880366E+00       5    8    1        -0.8119521514E+01      0.1990951551E+02
          0                 4           2             4    7     1       0.1329853037E+00       5    7    1         0.7340732756E+01      0.1787835726E+02
          0                 5           2             4    7     1      -0.5323984875E-02       4    8    1        -0.3052045325E+00      0.6835450038E+00
          0                 6           1             4    7     1       0.6569559424E-04       5    7    1         0.3909979398E-02      0.8773622062E-02

    ------------------------------------------------
       NWT REQUIRED            6 OUTER ITERATIONS 
       AND A TOTAL OF         11 INNER ITERATIONS.
    ------------------------------------------------

 NO OUTPUT CONTROL FOR STRESS PERIOD   33   TIME STEP   26
 
 SOLVING FOR HEAD 
                                                   Max.-Head-Change                         Max.-Flux-Residual
  Residual-Control   Outer-Iter.   Inner-Iter.     Column Row Layer    Maximum-Head-Change  Column Row Layer    Maximum-Flux-Residual          L2-NORM 
          0                 1           2             4    8     1       0.1397653199E+00       4    8    1         0.7607162133E+01      0.8341527593E+01
          0                 2           2             4    8     1       0.6049534062E-01       4    8    1         0.3288970289E+01      0.3311979847E+01
          0                 3           2             4    7     1      -0.1505079521E+00       5    8    1        -0.8116764193E+01      0.1937645411E+02
          0                 4           2             4    7     1       0.1320801614E+00       5    7    1         0.7340913589E+01      0.1670602203E+02
          0                 5           2             4    8     1       0.3115450247E-01       4    8    1         0.1796054071E+01      0.1897425692E+01
          0                 6           2             4    8     1       0.1444115145E-01       4    8    1         0.8297872420E+00      0.8298266117E+00
          0                 7           2             4    8     1       0.6693878341E-02       4    8    1         0.3846322448E+00      0.3846343425E+00
          0                 8           2             4    8     1       0.3102765858E-02       4    8    1         0.1782839331E+00      0.1782849764E+00
          0                 9           2             4    8     1       0.1438187055E-02       4    8    1         0.8263697390E-01      0.8263746181E-01
          0                10           2             4    8     1       0.6666178269E-03       4    8    1         0.3830291437E-01      0.3830314071E-01
                                                   Max.-Head-Change                         Max.-Flux-Residual
  Residual-Control   Outer-Iter.   Inner-Iter.     Column Row Layer    Maximum-Head-Change  Column Row Layer    Maximum-Flux-Residual          L2-NORM 
          0                11           2             4    8     1       0.3089823306E-03       4    8    1         0.1775351661E-01      0.1775362153E-01
          0                12           2             4    8     1       0.1432140210E-03       4    8    1         0.8228716945E-02      0.8228765574E-02
          0                13           1             4    8     1       0.6637928999E-04       4    8    1         0.3813950233E-02      0.3813972773E-02

    ------------------------------------------------
       NWT REQUIRED           13 OUTER ITERATIONS 
       AND A TOTAL OF         25 INNER ITERATIONS.
    ------------------------------------------------

 NO OUTPUT CONTROL FOR STRESS PERIOD   33   TIME STEP   27
 
 SOLVING FOR HEAD 
                                                   Max.-Head-Change                         Max.-Flux-Residual
  Residual-Control   Outer-Iter.   Inner-Iter.     Column Row Layer    Maximum-Head-Change  Column Row Layer    Maximum-Flux-Residual          L2-NORM 
          0                 1           2             4    8     1       0.2030792155E+00       4    8    1         0.1104024770E+02      0.1156620476E+02
          0                 2           2             5    7     1       0.1350572202E-01       5    7    1         0.7482937584E+00      0.1095492112E+01
          0                 3           2             4    7     1      -0.1507646245E+00       5    8    1        -0.8115106741E+01      0.1977019410E+02
          0                 4           2             4    7     1       0.1322163547E+00       4    6    1         0.7337342310E+01      0.1674853074E+02
          0                 5           2             4    8     1       0.1246760643E-01       4    8    1         0.7219843961E+00      0.9187719536E+00
          0                 6           2             5    7     1       0.1510749037E-02       5    7    1         0.8808884576E-01      0.1210220009E+00
          0                 7           2             5    7     1       0.6879919398E-03       5    7    1         0.4017478492E-01      0.4129699985E-01
          0                 8           2             5    7     1       0.3132719272E-03       5    7    1         0.1829601263E-01      0.1832961001E-01
          0                 9           2             5    7     1       0.1426403738E-03       5    7    1         0.8330845860E-02      0.8331919751E-02
          0                10           1             5    7     1       0.6494644522E-04       5    7    1         0.3793166802E-02      0.3793232486E-02

    ------------------------------------------------
       NWT REQUIRED           10 OUTER ITERATIONS 
       AND A TOTAL OF         19 INNER ITERATIONS.
    ------------------------------------------------

 NO OUTPUT CONTROL FOR STRESS PERIOD   33   TIME STEP   28
 
 SOLVING FOR HEAD 
                                                   Max.-Head-Change                         Max.-Flux-Residual
  Residual-Control   Outer-Iter.   Inner-Iter.     Column Row Layer    Maximum-Head-Change  Column Row Layer    Maximum-Flux-Residual          L2-NORM 
          0                 1           2             5    7     1       0.2594825009E+00       5    7    1         0.1431528610E+02      0.1462118426E+02
          0                 2           2             5    7     1       0.1620404633E-01       5    7    1         0.8985911647E+00      0.9639593788E+00
          0                 3           2             4    7     1      -0.1508349165E+00       5    8    1        -0.8113105226E+01      0.1989168157E+02
          0                 4           2             4    7     1       0.1326031006E+00       4    6    1         0.7337342598E+01      0.1733820940E+02
          0                 5           2             5    7     1       0.1224866916E-01       5    7    1         0.7266335176E+00      0.9487485626E+00
          0                 6           2             5    7     1       0.1383443345E-02       5    7    1         0.8069353305E-01      0.8109283027E-01
          0                 7           2             5    7     1       0.1562441258E-03       5    7    1         0.9121783360E-02      0.9124313667E-02
          0                 8           1             5    7     1       0.1764467020E-04       5    7    1         0.1030174149E-02      0.1030398585E-02

    ------------------------------------------------
       NWT REQUIRED            8 OUTER ITERATIONS 
       AND A TOTAL OF         15 INNER ITERATIONS.
    ------------------------------------------------

 NO OUTPUT CONTROL FOR STRESS PERIOD   33   TIME STEP   29
 
 SOLVING FOR HEAD 
                                                   Max.-Head-Change                         Max.-Flux-Residual
  Residual-Control   Outer-Iter.   Inner-Iter.     Column Row Layer    Maximum-Head-Change  Column Row Layer    Maximum-Flux-Residual          L2-NORM 
          0                 1           2             4    7     1       0.3171802993E-01       4    7    1         0.1701726088E+01      0.3126608236E+01
          0                 2           2             7   13     1      -0.3480955667E-02       7   13    1        -0.1930995060E+00      0.3629272949E+00
          0                 3           2             4    7     1      -0.1508327998E+00       5    8    1        -0.8111142768E+01      0.1991161974E+02
          0                 4           2             4    7     1       0.1329613108E+00       4    8    1         0.7341206940E+01      0.1784484028E+02
          0                 5           2             4    7     1      -0.5323035513E-02       4    8    1        -0.3052176342E+00      0.6820457372E+00
          0                 6           1             4    7     1       0.6568386461E-04       4    8    1         0.3909608952E-02      0.8754145672E-02

    ------------------------------------------------
       NWT REQUIRED            6 OUTER ITERATIONS 
       AND A TOTAL OF         11 INNER ITERATIONS.
    ------------------------------------------------

 NO OUTPUT CONTROL FOR STRESS PERIOD   33   TIME STEP   30



 STREAM LISTING     PERIOD     33   STEP       30

 LAYER ROW COL. STREAM  RCH.  FLOW INTO     FLOW TO   FLOW OUT OF   OVRLND.     DIRECT     STREAM       STREAM     STREAM     STREAM   STREAMBED  STREAMBED
                SEG.NO.  NO.  STRM. RCH.    AQUIFER    STRM. RCH.    RUNOFF     PRECIP       ET          HEAD       DEPTH      WIDTH   CONDCTNC.   GRADIENT

   1    1    1     1     1    4.5749E+01  3.2289E-01   4.5426E+01  0.000E+00  0.000E+00  0.000E+00  1.09442E+03  1.372E+00  1.641E+01  7.386E-02  1.457E+00
   1    2    2     1     2    4.5426E+01  5.0022E-01   4.4925E+01  0.000E+00  0.000E+00  0.000E+00  1.08943E+03  1.369E+00  1.636E+01  1.145E-01  1.456E+00
   1    3    3     1     3    4.4925E+01  4.2678E-01   4.4499E+01  0.000E+00  0.000E+00  0.000E+00  1.08378E+03  1.366E+00  1.629E+01  9.776E-02  1.455E+00
   1    3    4     1     4    4.4499E+01  3.9314E-01   4.4106E+01  0.000E+00  0.000E+00  0.000E+00  1.07877E+03  1.363E+00  1.624E+01  9.011E-02  1.454E+00
   1    4    5     2     1    4.2106E+01  3.6245E-01   4.1743E+01  0.000E+00  0.000E+00  0.000E+00  1.07358E+03  1.647E+00  1.200E+01  7.800E-02  1.549E+00
   1    5    6     2     2    4.1743E+01  2.7835E-01   4.1465E+01  0.000E+00  0.000E+00  0.000E+00  1.06815E+03  1.639E+00  1.200E+01  6.000E-02  1.546E+00
   1    6    6     2     3    4.1465E+01  2.7796E-01   4.1187E+01  0.000E+00  0.000E+00  0.000E+00  1.06343E+03  1.633E+00  1.200E+01  6.000E-02  1.544E+00
   1    7    6     2     4    4.1187E+01  2.7756E-01   4.0909E+01  0.000E+00  0.000E+00  0.000E+00  1.05870E+03  1.626E+00  1.200E+01  6.000E-02  1.542E+00
   1    8    6     2     5    4.0909E+01  2.7716E-01   4.0632E+01  0.000E+00  0.000E+00  0.000E+00  1.05398E+03  1.619E+00  1.200E+01  6.000E-02  1.540E+00
   1    3    5     3     1    2.0000E+00  2.8252E-01   1.7175E+00  0.000E+00  0.000E+00  0.000E+00  1.07555E+03  1.909E+00  9.636E+00  7.227E-02  1.955E+00
   1    3    6     3     2    1.7175E+00  2.4905E-01   1.4684E+00  0.000E+00  0.000E+00  0.000E+00  1.07264E+03  1.727E+00  8.909E+00  6.682E-02  1.864E+00
   1    3    7     3     3    1.4684E+00  1.9718E-01   1.2712E+00  0.000E+00  0.000E+00  0.000E+00  1.06987E+03  1.555E+00  8.218E+00  5.547E-02  1.777E+00
   1    4    8     3     4    1.2712E+00  2.2567E-01   1.0456E+00  0.000E+00  0.000E+00  0.000E+00  1.06682E+03  1.364E+00  7.455E+00  6.709E-02  1.682E+00
   1    5    8     3     5    1.0456E+00  1.5790E-01   8.8768E-01  0.000E+00  0.000E+00  0.000E+00  1.06362E+03  1.164E+00  6.655E+00  4.991E-02  1.582E+00
   1    6    8     3     6    8.8768E-01  5.5980E-02   8.3170E-01  0.000E+00  0.000E+00  0.000E+00  1.06158E+03  1.036E+00  6.145E+00  1.844E-02  1.518E+00
   1    5   10     4     1    1.0000E+01  9.0919E-02   9.9091E+00  0.000E+00  0.000E+00  0.000E+00  1.07836E+03  6.368E-01  1.000E+01  2.500E-02  1.212E+00
   1    5    9     4     2    9.9091E+00  1.8158E-01   9.7275E+00  0.000E+00  0.000E+00  0.000E+00  1.07154E+03  6.315E-01  1.000E+01  5.000E-02  1.211E+00
   1    6    8     4     3    9.7275E+00  1.2689E-01   9.6006E+00  0.000E+00  0.000E+00  0.000E+00  1.06381E+03  6.256E-01  1.000E+01  3.500E-02  1.209E+00
   1    6    8     5     1    1.0432E+01  2.2686E-01   1.0205E+01  0.000E+00  0.000E+00  0.000E+00  1.05868E+03  6.790E-01  1.542E+01  6.166E-02  1.226E+00
   1    7    7     5     2    1.0205E+01  2.7894E-01   9.9265E+00  0.000E+00  0.000E+00  0.000E+00  1.05417E+03  6.732E-01  1.519E+01  7.594E-02  1.224E+00
   1    8    7     5     3    9.9265E+00  1.9221E-01   9.7343E+00  0.000E+00  0.000E+00  0.000E+00  1.04992E+03  6.676E-01  1.497E+01  5.241E-02  1.223E+00
   1    8    6     5     4    9.7343E+00  1.3577E-01   9.5985E+00  0.000E+00  0.000E+00  0.000E+00  1.04691E+03  6.637E-01  1.482E+01  3.706E-02  1.221E+00
   1    9    6     6     1    9.5985E+00  2.2097E-01   9.3776E+00  0.000E+00  0.000E+00  0.000E+00  1.04341E+03  6.828E-01  1.200E+01  6.000E-02  1.228E+00
   1   10    7     6     2    9.3776E+00  2.2039E-01   9.1572E+00  0.000E+00  0.000E+00  0.000E+00  1.03885E+03  6.732E-01  1.200E+01  6.000E-02  1.224E+00
   1   11    7     6     3    9.1572E+00  2.1981E-01   8.9374E+00  0.000E+00  0.000E+00  0.000E+00  1.03430E+03  6.636E-01  1.200E+01  6.000E-02  1.221E+00
   1   12    7     6     4    8.9374E+00  2.1923E-01   8.7181E+00  0.000E+00  0.000E+00  0.000E+00  1.02974E+03  6.539E-01  1.200E+01  6.000E-02  1.218E+00
   1   13    7     6     5    8.7181E+00 -9.2430E-02   8.8106E+00  0.000E+00  0.000E+00  0.000E+00  1.02656E+03  6.510E-01  1.200E+01  2.400E-01 -1.284E-01
   1   14    9     7     1    1.5000E+02  1.3433E+00   1.4866E+02  0.000E+00  0.000E+00  0.000E+00  1.03987E+03  2.288E+00  5.529E+01  5.593E-01  8.006E-01
   1   13    8     7     2    1.4866E+02  1.8628E+00   1.4679E+02  0.000E+00  0.000E+00  0.000E+00  1.03478E+03  2.279E+00  5.526E+01  6.148E-01  1.010E+00
   1   13    7     7     3    1.4679E+02  1.5325E+00   1.4526E+02  0.000E+00  0.000E+00  0.000E+00  1.02969E+03  2.270E+00  5.522E+01  5.584E-01  9.147E-01
   1   13    6     8     1    1.5407E+02  8.9098E-01   1.5318E+02  0.000E+00  0.000E+00  0.000E+00  1.02472E+03  2.842E+00  4.121E+01  4.200E-01  7.072E-01
   1   13    5     8     2    1.5318E+02  1.6564E-01   1.5302E+02  0.000E+00  0.000E+00  0.000E+00  1.01846E+03  2.839E+00  4.116E+01  4.194E-01  1.316E-01
   1   13    4     8     3    1.5302E+02 -2.4312E+00   1.5545E+02  0.000E+00  0.000E+00  0.000E+00  1.01222E+03  2.846E+00  4.127E+01  4.206E+00 -1.927E-01
   1   13    3     8     4    1.5545E+02 -3.6449E+00   1.5909E+02  0.000E+00  0.000E+00  0.000E+00  1.00599E+03  2.867E+00  4.158E+01  4.237E+00 -2.868E-01
   1   13    2     8     5    1.5909E+02 -2.5949E+00   1.6169E+02  0.000E+00  0.000E+00  0.000E+00  9.99763E+02  2.888E+00  4.188E+01  4.268E+00 -2.027E-01
   1   13    1     8     6    1.6169E+02 -2.0079E+00   1.6369E+02  0.000E+00  0.000E+00  0.000E+00  9.94779E+02  2.904E+00  4.211E+01  2.575E+00 -2.600E-01
   1    8    6     9     1    4.0632E+01  0.0000E+00   4.0632E+01  0.000E+00  0.000E+00  0.000E+00  1.08401E+03  5.255E+00  4.000E+00  0.000E+00  2.752E+00
   1    8    5     9     2    4.0632E+01  0.0000E+00   4.0632E+01  0.000E+00  0.000E+00  0.000E+00  1.08351E+03  5.255E+00  4.000E+00  0.000E+00  2.752E+00





UNSATURATED ZONE PACKAGE VOLUMETRIC BUDGET FOR  TIME STEP    30 STRESS PERIOD   33
  ------------------------------------------------------------------------------



     CUMULATIVE VOLUMES      L**3       RATES FOR THIS TIME STEP      L**3/T
     ------------------                 ------------------------

           IN:                                      IN:
           ---                                      ---
        INFILTRATION =  1470434182.4388          INFILTRATION =          49.5231

          OUT:                                     OUT:
          ----                                     ----
              UZF ET =  1243676803.8452                UZF ET =          49.5675
        UZF RECHARGE =    10543994.5078          UZF RECHARGE =       0.0000E+00

            IN - OUT =   216213384.0859              IN - OUT =      -4.4380E-02

          STORAGE:                                 STORAGE:
          --------                                 --------
      STORAGE CHANGE =   216368496.6703        STORAGE CHANGE =      -4.4380E-02

 PERCENT DISCREPANCY IS DIFFERENCE BETWEEN IN-OUT MINUS CHANGE IN STORAGE
 DIVIDED BY THE AVERAGE OF IN AND OUT TIMES 100

 PERCENT DISCREPANCY =          -0.00     PERCENT DISCREPANCY =           0.00






1
  VOLUMETRIC BUDGET FOR AGRICULTURAL FIELDS AT  END OF TIME STEP   30, STRESS PERIOD  33
  ------------------------------------------------------------------------------

     CUMULATIVE VOLUMES      L**3       RATES FOR THIS TIME STEP      L**3/T
     ------------------                 ------------------------

           IN:                                      IN:
           ---                                      ---
           AG WELLS      =   463899968.0000             AG WELLS      =           8.0427
      DIVERSION SEGMENTS =   935172224.0000        DIVERSION SEGMENTS =          40.6321
           GW IRRIGATION =           0.0000             GW IRRIGATION =           0.0000
           SW IRRIGATION =           0.0000             SW IRRIGATION =           0.0000
        SYSTEM LOSSES GW =           0.0000          SYSTEM LOSSES GW =           0.0000
        SYSTEM LOSSES SW =           0.0000          SYSTEM LOSSES SW =           0.0000

                TOTAL IN =  1399072256.0000                  TOTAL IN =          48.6748

          OUT:                                     OUT:
          ----                                     ----
           AG WELLS      =           0.0000             AG WELLS      =           0.0000
      DIVERSION SEGMENTS =           0.0000        DIVERSION SEGMENTS =           0.0000
           GW IRRIGATION =   463899968.0000             GW IRRIGATION =           8.0427
           SW IRRIGATION =   935190720.0000             SW IRRIGATION =          40.6329
        SYSTEM LOSSES GW =           0.0000          SYSTEM LOSSES GW =           0.0000
        SYSTEM LOSSES SW =           0.0000          SYSTEM LOSSES SW =           0.0000

               TOTAL OUT =  1399090688.0000                 TOTAL OUT =          48.6756

                IN - OUT =      -18432.0000                  IN - OUT =      -8.1253E-04

     PERCENT DISCREPANCY =          -0.00         PERCENT DISCREPANCY =          -0.00



1
  VOLUMETRIC BUDGET FOR ENTIRE MODEL AT END OF TIME STEP   30, STRESS PERIOD  33
  ------------------------------------------------------------------------------

     CUMULATIVE VOLUMES      L**3       RATES FOR THIS TIME STEP      L**3/T
     ------------------                 ------------------------

           IN:                                      IN:
           ---                                      ---
             STORAGE     =   739508096.0000               STORAGE     =           7.9557
       CONSTANT HEAD     =           0.0000         CONSTANT HEAD     =           0.0000
     HEAD DEP BOUNDS     =    24083238.0000       HEAD DEP BOUNDS     =           0.2863
      STREAM LEAKAGE     =  1011300480.0000        STREAM LEAKAGE     =          12.1935
        UZF RECHARGE     =    10543994.0000          UZF RECHARGE     =           0.0000
               GW ET     =           0.0000                 GW ET     =           0.0000
     SURFACE LEAKAGE     =           0.0000       SURFACE LEAKAGE     =           0.0000
           AG WELLS      =           0.0000             AG WELLS      =           0.0000

                TOTAL IN =  1785435776.0000                  TOTAL IN =          20.4355

          OUT:                                     OUT:
          ----                                     ----
             STORAGE     =   388093632.0000               STORAGE     =           1.3340
       CONSTANT HEAD     =           0.0000         CONSTANT HEAD     =           0.0000
     HEAD DEP BOUNDS     =    24496314.0000       HEAD DEP BOUNDS     =           0.2872
      STREAM LEAKAGE     =   906133888.0000        STREAM LEAKAGE     =          10.7713
        UZF RECHARGE     =           0.0000          UZF RECHARGE     =           0.0000
               GW ET     =     2818101.5000                 GW ET     =           0.0000
     SURFACE LEAKAGE     =           0.0000       SURFACE LEAKAGE     =           0.0000
           AG WELLS      =   463899968.0000             AG WELLS      =           8.0427

               TOTAL OUT =  1785441792.0000                 TOTAL OUT =          20.4353

                IN - OUT =       -6016.0000                  IN - OUT =       2.6703E-04

     PERCENT DISCREPANCY =          -0.00         PERCENT DISCREPANCY =           0.00






         TIME SUMMARY AT END OF TIME STEP   30 IN STRESS PERIOD   33
                    SECONDS     MINUTES      HOURS       DAYS        YEARS
                    -----------------------------------------------------------
   TIME STEP LENGTH  87667.      1461.1      24.352      1.0147     2.77799E-03
 STRESS PERIOD TIME 2.63000E+06  43833.      730.56      30.440     8.33397E-02
         TOTAL TIME 8.42463E+07 1.40410E+06  23402.      975.07      2.6696    
1
1
                            STRESS PERIOD NO.   34, LENGTH =   2630000.    
                            -----------------------------------------------

                              NUMBER OF TIME STEPS =    30

                               MULTIPLIER FOR DELT =     1.000

                            INITIAL TIME STEP SIZE =   87666.66    

 REUSING NON-PARAMETER GHB CELLS FROM LAST STRESS PERIOD

      2 GHB CELLS

 REUSING STREAM SEGMENT DATA FROM LAST STRESS PERIOD



            AREAL INFILTRATION RATE
 READING ON UNIT   19 WITH FORMAT: (FREE)              

            1           2           3           4           5           6           7           8           9          10
 ........................................................................................................................
   1   1.0000E-10  2.0000E-10   0.000       0.000       0.000       0.000       0.000       0.000       0.000       0.000    
   2   2.0000E-10  1.0000E-10  2.0000E-10   0.000       0.000      8.0000E-10  8.0000E-10  5.0000E-10   0.000       0.000    
   3    0.000      5.0000E-10  1.0000E-10  1.0000E-10  8.0000E-10  8.0000E-10  5.0000E-10  5.0000E-10   0.000       0.000    
   4   8.0000E-10  5.0000E-10  1.0000E-10  1.0000E-10  1.0000E-10  1.0000E-10  1.0000E-10  1.0000E-10  2.0000E-10   0.000    
   5   8.0000E-10  5.0000E-10  1.0000E-10  1.0000E-10  1.0000E-10  1.0000E-10  1.0000E-10  1.0000E-10  1.0000E-10  1.0000E-10
   6   8.0000E-10  5.0000E-10  5.0000E-10  2.0000E-10  2.0000E-10  1.0000E-10  1.0000E-10  1.0000E-10  1.0000E-10  5.0000E-10
   7   8.0000E-10  5.0000E-10  5.0000E-10  2.0000E-10  2.0000E-10  1.0000E-10  1.0000E-10  2.0000E-10  2.0000E-10   0.000    
   8    0.000      5.0000E-10  5.0000E-10  2.0000E-10  2.0000E-10  1.0000E-10  1.0000E-10  2.0000E-10  5.0000E-10   0.000    
   9    0.000      5.0000E-10  5.0000E-10  2.0000E-10  2.0000E-10  1.0000E-10  1.0000E-10  2.0000E-10  5.0000E-10   0.000    
  10    0.000      5.0000E-10  5.0000E-10  2.0000E-10  2.0000E-10  1.0000E-10  1.0000E-10  2.0000E-10  5.0000E-10  8.0000E-10
  11    0.000      1.0000E-10  1.0000E-10  1.0000E-10  1.0000E-10  1.0000E-10  1.0000E-10  2.0000E-10  5.0000E-10   0.000    
  12   1.0000E-10  1.0000E-10  1.0000E-10  1.0000E-10  1.0000E-10  1.0000E-10  1.0000E-10  1.0000E-10  2.0000E-10   0.000    
  13   1.0000E-10  1.0000E-10  2.0000E-10  2.0000E-10  2.0000E-10  2.0000E-10  2.0000E-10  1.0000E-10  1.0000E-10   0.000    
  14    0.000      2.0000E-10  5.0000E-10  5.0000E-10  5.0000E-10  5.0000E-10  5.0000E-10  2.0000E-10  1.0000E-10   0.000    
  15    0.000       0.000      8.0000E-10  8.0000E-10  8.0000E-10  8.0000E-10   0.000       0.000       0.000       0.000    

                  ET RATE =  7.500000E-08

 USING ET EXTINCTION DEPTH FROM PREVIOUS STRESS PERIOD. CURRENT PERIOD IS:      34

 USING EXTINCTION WATER CONTENT FROM PREVIOUS STRESS PERIOD. CURRENT PERIOD IS:      34

 USING AIR ENTRY PRESSURE FROM PREVIOUS STRESS PERIOD. CURRENT PERIOD IS:      34

 USING ROOT PRESSURE HEAD FROM PREVIOUS STRESS PERIOD. CURRENT PERIOD IS:      34

 USING ROOT ACTIVITY FROM PREVIOUS STRESS PERIOD. CURRENT PERIOD IS:      34

 PROCESSING AG STRESS PERIOD DATA

 READING AG STRESS PERIOD DATA

 READING IRRIGATION SEGMENT

 READING IRRIGATION WELL

 READING SUPPLEMENTAL WELL

 END PROCESSING AG STRESS PERIOD DATA OPTIONS
 
 SOLVING FOR HEAD 
                                                   Max.-Head-Change                         Max.-Flux-Residual
  Residual-Control   Outer-Iter.   Inner-Iter.     Column Row Layer    Maximum-Head-Change  Column Row Layer    Maximum-Flux-Residual          L2-NORM 
          0                 1           2             4    7     1       0.3086937764E-01       4    7    1         0.1654408459E+01      0.2870232413E+01
          0                 2           2             4    7     1      -0.3002782656E-02       4    7    1        -0.1654432208E+00      0.3121419258E+00
          0                 3           2             4    7     1       0.2044780347E-03       4    7    1         0.1158100798E-01      0.2173591966E-01
          0                 4           1             4    7     1      -0.8136373642E-05       4    7    1        -0.4736639974E-03      0.8820955398E-03

    ------------------------------------------------
       NWT REQUIRED            4 OUTER ITERATIONS 
       AND A TOTAL OF          7 INNER ITERATIONS.
    ------------------------------------------------

 NO OUTPUT CONTROL FOR STRESS PERIOD   34   TIME STEP    1
 
 SOLVING FOR HEAD 
                                                   Max.-Head-Change                         Max.-Flux-Residual
  Residual-Control   Outer-Iter.   Inner-Iter.     Column Row Layer    Maximum-Head-Change  Column Row Layer    Maximum-Flux-Residual          L2-NORM 
          0                 1           2             4    7     1       0.2994488628E-01       4    7    1         0.1603930861E+01      0.2909742568E+01
          0                 2           2             4    7     1      -0.2906061934E-02       4    7    1        -0.1603953258E+00      0.2860787484E+00
          0                 3           2             4    7     1      -0.3449753856E-01       5    8    1        -0.1865539548E+01      0.4573166482E+01
          0                 4           2             4    7     1       0.3610012049E-01       4    8    1         0.1993407788E+01      0.4850530159E+01
          0                 5           2             4    7     1      -0.1429069574E-02       4    8    1        -0.8239672186E-01      0.1731256545E+00
          0                 6           2             5    7     1      -0.1260215110E-03       5    7    1        -0.7594223930E-02      0.7883524051E-02
          0                 7           1             5    7     1      -0.1726421188E-04       5    7    1        -0.1036859815E-02      0.1037264795E-02

    ------------------------------------------------
       NWT REQUIRED            7 OUTER ITERATIONS 
       AND A TOTAL OF         13 INNER ITERATIONS.
    ------------------------------------------------

 NO OUTPUT CONTROL FOR STRESS PERIOD   34   TIME STEP    2
 
 SOLVING FOR HEAD 
                                                   Max.-Head-Change                         Max.-Flux-Residual
  Residual-Control   Outer-Iter.   Inner-Iter.     Column Row Layer    Maximum-Head-Change  Column Row Layer    Maximum-Flux-Residual          L2-NORM 
          0                 1           2             4    7     1       0.2907031748E-01       4    7    1         0.1556197243E+01      0.2678034568E+01
          0                 2           2             4    7     1      -0.2804208131E-02       4    7    1        -0.1556218295E+00      0.2649182164E+00
          0                 3           2             4    7     1      -0.3450540081E-01       5    8    1        -0.1865401972E+01      0.4571739428E+01
          0                 4           2             4    7     1       0.3608438850E-01       4    8    1         0.1993605613E+01      0.4821955242E+01
          0                 5           2             4    8     1      -0.1420507790E-02       4    8    1        -0.8240438209E-01      0.1655518626E+00
          0                 6           1             5    7     1       0.1840883036E-04       4    8    1         0.1054875658E-02      0.2359749138E-02

    ------------------------------------------------
       NWT REQUIRED            6 OUTER ITERATIONS 
       AND A TOTAL OF         11 INNER ITERATIONS.
    ------------------------------------------------

 NO OUTPUT CONTROL FOR STRESS PERIOD   34   TIME STEP    3
 
 SOLVING FOR HEAD 
                                                   Max.-Head-Change                         Max.-Flux-Residual
  Residual-Control   Outer-Iter.   Inner-Iter.     Column Row Layer    Maximum-Head-Change  Column Row Layer    Maximum-Flux-Residual          L2-NORM 
          0                 1           2             4    7     1       0.2825453160E-01       4    7    1         0.1511805939E+01      0.2596424064E+01
          0                 2           2             4    7     1      -0.2716994113E-02       4    7    1        -0.1511825746E+00      0.2530560383E+00
          0                 3           2             4    7     1      -0.3451541314E-01       5    8    1        -0.1865283915E+01      0.4574306214E+01
          0                 4           2             4    7     1       0.3608122708E-01       4    6    1         0.1992664810E+01      0.4810895919E+01
          0                 5           2             4    6     1      -0.1416577565E-02       5    6    1        -0.8154058344E-01      0.1506540733E+00
          0                 6           2             4    8     1      -0.1107664237E-03       4    8    1        -0.6552861160E-02      0.6892863951E-02
          0                 7           1             4    8     1      -0.1544731721E-04       4    8    1        -0.9125742952E-03      0.9218003410E-03

    ------------------------------------------------
       NWT REQUIRED            7 OUTER ITERATIONS 
       AND A TOTAL OF         13 INNER ITERATIONS.
    ------------------------------------------------

 NO OUTPUT CONTROL FOR STRESS PERIOD   34   TIME STEP    4
 
 SOLVING FOR HEAD 
                                                   Max.-Head-Change                         Max.-Flux-Residual
  Residual-Control   Outer-Iter.   Inner-Iter.     Column Row Layer    Maximum-Head-Change  Column Row Layer    Maximum-Flux-Residual          L2-NORM 
          0                 1           2             4    7     1       0.2748227407E-01       4    7    1         0.1469795181E+01      0.2520717255E+01
          0                 2           2             4    7     1      -0.2629669408E-02       4    7    1        -0.1469813828E+00      0.2470779281E+00
          0                 3           2             4    7     1      -0.3452262599E-01       5    8    1        -0.1865159922E+01      0.4573394953E+01
          0                 4           2             4    7     1       0.3607032240E-01       4    6    1         0.1992852236E+01      0.4787555888E+01
          0                 5           2             4    6     1      -0.1416532926E-02       5    6    1        -0.8154891377E-01      0.1438532993E+00
          0                 6           1             5    7     1       0.2012010247E-04       5    7    1         0.1146922130E-02      0.2236996160E-02

    ------------------------------------------------
       NWT REQUIRED            6 OUTER ITERATIONS 
       AND A TOTAL OF         11 INNER ITERATIONS.
    ------------------------------------------------

 NO OUTPUT CONTROL FOR STRESS PERIOD   34   TIME STEP    5
 
 SOLVING FOR HEAD 
                                                   Max.-Head-Change                         Max.-Flux-Residual
  Residual-Control   Outer-Iter.   Inner-Iter.     Column Row Layer    Maximum-Head-Change  Column Row Layer    Maximum-Flux-Residual          L2-NORM 
          0                 1           2             4    7     1       0.2675695015E-01       4    7    1         0.1430434097E+01      0.2449541092E+01
          0                 2           2             4    7     1      -0.2559285789E-02       4    7    1        -0.1430451732E+00      0.2399085855E+00
          0                 3           2             4    7     1      -0.3453052203E-01       5    8    1        -0.1865054716E+01      0.4573936252E+01
          0                 4           2             4    7     1       0.3607391591E-01       4    6    1         0.1993032019E+01      0.4788294249E+01
          0                 5           2             4    6     1      -0.1416662443E-02       5    6    1        -0.8155686377E-01      0.1438476040E+00
          0                 6           1             5    7     1       0.2053047542E-04       5    7    1         0.1170951656E-02      0.2224555462E-02

    ------------------------------------------------
       NWT REQUIRED            6 OUTER ITERATIONS 
       AND A TOTAL OF         11 INNER ITERATIONS.
    ------------------------------------------------

 NO OUTPUT CONTROL FOR STRESS PERIOD   34   TIME STEP    6
 
 SOLVING FOR HEAD 
                                                   Max.-Head-Change                         Max.-Flux-Residual
  Residual-Control   Outer-Iter.   Inner-Iter.     Column Row Layer    Maximum-Head-Change  Column Row Layer    Maximum-Flux-Residual          L2-NORM 
          0                 1           2             4    7     1       0.2606186425E-01       4    7    1         0.1392736174E+01      0.2382925938E+01
          0                 2           2             4    7     1      -0.2491868007E-02       4    7    1        -0.1392752863E+00      0.2331971311E+00
          0                 3           2             4    7     1      -0.3453809378E-01       5    8    1        -0.1864960276E+01      0.4574460195E+01
          0                 4           2             4    7     1       0.3607739757E-01       4    6    1         0.1993205014E+01      0.4789050535E+01
          0                 5           2             4    6     1      -0.1416787873E-02       5    6    1        -0.8156447518E-01      0.1438371381E+00
          0                 6           1             5    7     1       0.2070581025E-04       5    7    1         0.1181251478E-02      0.2210607455E-02

    ------------------------------------------------
       NWT REQUIRED            6 OUTER ITERATIONS 
       AND A TOTAL OF         11 INNER ITERATIONS.
    ------------------------------------------------

 NO OUTPUT CONTROL FOR STRESS PERIOD   34   TIME STEP    7
 
 SOLVING FOR HEAD 
                                                   Max.-Head-Change                         Max.-Flux-Residual
  Residual-Control   Outer-Iter.   Inner-Iter.     Column Row Layer    Maximum-Head-Change  Column Row Layer    Maximum-Flux-Residual          L2-NORM 
          0                 1           2             5    8     1       0.1951151129E+00       5    8    1         0.1075317104E+02      0.1099861011E+02
          0                 2           2             5    8     1       0.7844711620E-01       5    8    1         0.4328749709E+01      0.4335250078E+01
          0                 3           2             4    7     1      -0.3452309657E-01       4    6    1        -0.1856215403E+01      0.4168227248E+01
          0                 4           2             4    7     1       0.3605649755E-01       4    6    1         0.1993371191E+01      0.4693824603E+01
          0                 5           2             5    8     1       0.1376911143E-01       5    8    1         0.8016475712E+00      0.8175181870E+00
          0                 6           2             5    8     1       0.5979488118E-02       5    8    1         0.3485757515E+00      0.3487533889E+00
          0                 7           1             5    8     1       0.2595479181E-02       5    8    1         0.1513538690E+00      0.1513732869E+00
          0                 8           1             5    8     1       0.1126453778E-02       5    8    1         0.6569371948E-01      0.6569840062E-01
          0                 9           1             5    8     1       0.4888662249E-03       5    8    1         0.2851061106E-01      0.2851229431E-01
          0                10           1             5    8     1       0.2121571368E-03       5    8    1         0.1237293284E-01      0.1237362596E-01
          0                11           1             5    8     1       0.9207015466E-04       5    8    1         0.5369457651E-02      0.5369754253E-02

    ------------------------------------------------
       NWT REQUIRED           11 OUTER ITERATIONS 
       AND A TOTAL OF         17 INNER ITERATIONS.
    ------------------------------------------------

 NO OUTPUT CONTROL FOR STRESS PERIOD   34   TIME STEP    8
 
 SOLVING FOR HEAD 
                                                   Max.-Head-Change                         Max.-Flux-Residual
  Residual-Control   Outer-Iter.   Inner-Iter.     Column Row Layer    Maximum-Head-Change  Column Row Layer    Maximum-Flux-Residual          L2-NORM 
          0                 1           2             5    8     1       0.1799051648E+00       5    8    1         0.9897451260E+01      0.1019779568E+02
          0                 2           2             5    8     1       0.7235774766E-01       5    8    1         0.3993066811E+01      0.4000680285E+01
          0                 3           2             4    7     1      -0.3453063989E-01       4    6    1        -0.1856464596E+01      0.4175792203E+01
          0                 4           2             4    7     1       0.3603520848E-01       4    6    1         0.1993530924E+01      0.4637170640E+01
          0                 5           2             5    8     1       0.1337734791E-01       5    8    1         0.7771556164E+00      0.8009332447E+00
          0                 6           2             5    8     1       0.5816329063E-02       5    8    1         0.3387265747E+00      0.3391754156E+00
          0                 7           1             5    8     1       0.2526639410E-02       5    8    1         0.1472377234E+00      0.1472703102E+00
          0                 8           1             5    8     1       0.1097318131E-02       5    8    1         0.6395548328E-01      0.6396097307E-01
          0                 9           1             5    8     1       0.4765300009E-03       5    8    1         0.2777478365E-01      0.2777646924E-01
          0                10           1             5    8     1       0.2069358006E-03       5    8    1         0.1206138023E-01      0.1206204116E-01
          0                11           1             5    8     1       0.8986152311E-04       5    8    1         0.5237600038E-02      0.5237879195E-02

    ------------------------------------------------
       NWT REQUIRED           11 OUTER ITERATIONS 
       AND A TOTAL OF         17 INNER ITERATIONS.
    ------------------------------------------------

 NO OUTPUT CONTROL FOR STRESS PERIOD   34   TIME STEP    9
 
 SOLVING FOR HEAD 
                                                   Max.-Head-Change                         Max.-Flux-Residual
  Residual-Control   Outer-Iter.   Inner-Iter.     Column Row Layer    Maximum-Head-Change  Column Row Layer    Maximum-Flux-Residual          L2-NORM 
          0                 1           2             5    8     1       0.1616338026E+00       5    8    1         0.8869979313E+01      0.9264235649E+01
          0                 2           2             5    8     1       0.2475436985E-01       5    8    1         0.1364745910E+01      0.1389361652E+01
          0                 3           2             4    7     1      -0.3455019677E-01       5    6    1        -0.1856710133E+01      0.4547911040E+01
          0                 4           2             4    7     1       0.3602164040E-01       4    6    1         0.1993673164E+01      0.4615803146E+01
          0                 5           2             5    8     1       0.2899469507E-02       5    8    1         0.1655613148E+00      0.2740822417E+00
          0                 6           2             5    8     1       0.2736765634E-03       5    8    1         0.1554594603E-01      0.2480151080E-01
          0                 7           1             5    7     1       0.2801011920E-04       5    7    1         0.1611398215E-02      0.2690074193E-02

    ------------------------------------------------
       NWT REQUIRED            7 OUTER ITERATIONS 
       AND A TOTAL OF         13 INNER ITERATIONS.
    ------------------------------------------------

 NO OUTPUT CONTROL FOR STRESS PERIOD   34   TIME STEP   10
 
 SOLVING FOR HEAD 
                                                   Max.-Head-Change                         Max.-Flux-Residual
  Residual-Control   Outer-Iter.   Inner-Iter.     Column Row Layer    Maximum-Head-Change  Column Row Layer    Maximum-Flux-Residual          L2-NORM 
          0                 1           2             5    8     1      -0.5314530364E-01       5    8    1        -0.2986956828E+01      0.4100625208E+01
          0                 2           2             5    8     1       0.5252212025E-02       5    8    1         0.2979142682E+00      0.3897587444E+00
          0                 3           2             4    7     1      -0.3455723057E-01       5    8    1        -0.1884605222E+01      0.4582002538E+01
          0                 4           2             4    7     1       0.3603380155E-01       5    6    1         0.1993824210E+01      0.4707620535E+01
          0                 5           2             5    7     1       0.1804715078E-02       5    7    1         0.1082611582E+00      0.2053376880E+00
          0                 6           2             5    7     1       0.2041314159E-03       5    7    1         0.1187934499E-01      0.1653074007E-01
          0                 7           1             5    7     1       0.2308786804E-04       5    7    1         0.1345941369E-02      0.1879762210E-02

    ------------------------------------------------
       NWT REQUIRED            7 OUTER ITERATIONS 
       AND A TOTAL OF         13 INNER ITERATIONS.
    ------------------------------------------------

 NO OUTPUT CONTROL FOR STRESS PERIOD   34   TIME STEP   11
 
 SOLVING FOR HEAD 
                                                   Max.-Head-Change                         Max.-Flux-Residual
  Residual-Control   Outer-Iter.   Inner-Iter.     Column Row Layer    Maximum-Head-Change  Column Row Layer    Maximum-Flux-Residual          L2-NORM 
          0                 1           2             5    8     1      -0.4906204425E-01       5    8    1        -0.2757043492E+01      0.3850962117E+01
          0                 2           2             5    8     1       0.4861574543E-02       5    8    1         0.2756856718E+00      0.3670914809E+00
          0                 3           2             4    7     1      -0.3456112555E-01       5    8    1        -0.1883180573E+01      0.4582079640E+01
          0                 4           2             4    7     1       0.3604321239E-01       5    6    1         0.1993970485E+01      0.4718094844E+01
          0                 5           2             5    7     1       0.1590249951E-02       5    7    1         0.9574614919E-01      0.1933168323E+00
          0                 6           2             5    7     1       0.1798728384E-03       5    7    1         0.1046432335E-01      0.1456285188E-01
          0                 7           1             5    7     1       0.2034409206E-04       5    7    1         0.1185960262E-02      0.1652709316E-02

    ------------------------------------------------
       NWT REQUIRED            7 OUTER ITERATIONS 
       AND A TOTAL OF         13 INNER ITERATIONS.
    ------------------------------------------------

 NO OUTPUT CONTROL FOR STRESS PERIOD   34   TIME STEP   12
 
 SOLVING FOR HEAD 
                                                   Max.-Head-Change                         Max.-Flux-Residual
  Residual-Control   Outer-Iter.   Inner-Iter.     Column Row Layer    Maximum-Head-Change  Column Row Layer    Maximum-Flux-Residual          L2-NORM 
          0                 1           2             5    8     1      -0.4528572975E-01       5    8    1        -0.2544522741E+01      0.3624026151E+01
          0                 2           2             5    8     1       0.4488184084E-02       5    8    1         0.2544363277E+00      0.3460177698E+00
          0                 3           2             4    7     1      -0.3456542729E-01       5    8    1        -0.1881819155E+01      0.4582139411E+01
          0                 4           2             4    7     1       0.3605219096E-01       5    6    1         0.1994111786E+01      0.4728112292E+01
          0                 5           2             4    6     1      -0.1416635720E-02       5    7    1         0.8452184347E-01      0.1830629293E+00
          0                 6           2             5    7     1       0.1581152816E-03       5    7    1         0.9195213583E-02      0.1277060084E-01
          0                 7           1             5    7     1       0.1788315304E-04       5    7    1         0.1042473657E-02      0.1446029296E-02

    ------------------------------------------------
       NWT REQUIRED            7 OUTER ITERATIONS 
       AND A TOTAL OF         13 INNER ITERATIONS.
    ------------------------------------------------

 NO OUTPUT CONTROL FOR STRESS PERIOD   34   TIME STEP   13
 
 SOLVING FOR HEAD 
                                                   Max.-Head-Change                         Max.-Flux-Residual
  Residual-Control   Outer-Iter.   Inner-Iter.     Column Row Layer    Maximum-Head-Change  Column Row Layer    Maximum-Flux-Residual          L2-NORM 
          0                 1           2             5    8     1      -0.4180311754E-01       5    8    1        -0.2348632823E+01      0.3418087959E+01
          0                 2           2             5    8     1       0.4143911238E-02       5    8    1         0.2348496588E+00      0.3268373894E+00
          0                 3           2             4    7     1      -0.3456985496E-01       5    8    1        -0.1880569533E+01      0.4582223239E+01
          0                 4           2             4    7     1       0.3606014399E-01       5    6    1         0.1994248447E+01      0.4737110203E+01
          0                 5           2             4    6     1      -0.1416839195E-02       4    6    1        -0.8158602724E-01      0.1749755533E+00
          0                 6           2             5    7     1       0.1385948580E-03       5    7    1         0.8056521262E-02      0.1124781994E-01
          0                 7           1             5    7     1       0.1567539427E-04       5    7    1         0.9137383167E-03      0.1270211226E-02

    ------------------------------------------------
       NWT REQUIRED            7 OUTER ITERATIONS 
       AND A TOTAL OF         13 INNER ITERATIONS.
    ------------------------------------------------

 NO OUTPUT CONTROL FOR STRESS PERIOD   34   TIME STEP   14
 
 SOLVING FOR HEAD 
                                                   Max.-Head-Change                         Max.-Flux-Residual
  Residual-Control   Outer-Iter.   Inner-Iter.     Column Row Layer    Maximum-Head-Change  Column Row Layer    Maximum-Flux-Residual          L2-NORM 
          0                 1           2             5    8     1      -0.3858934626E-01       5    8    1        -0.2167956260E+01      0.3231132884E+01
          0                 2           2             5    8     1       0.3842833208E-02       5    8    1         0.2178430118E+00      0.3099589154E+00
          0                 3           2             4    7     1      -0.3457438491E-01       5    8    1        -0.1879495202E+01      0.4582372966E+01
          0                 4           2             4    7     1       0.3606771312E-01       5    6    1         0.1994380431E+01      0.4745246373E+01
          0                 5           2             4    6     1      -0.1417032217E-02       4    6    1        -0.8159125796E-01      0.1679906366E+00
          0                 6           2             5    7     1       0.1205435775E-03       5    7    1         0.7008107176E-02      0.9812323993E-02
          0                 7           1             5    7     1       0.1362203506E-04       5    7    1         0.7944886743E-03      0.1103253709E-02

    ------------------------------------------------
       NWT REQUIRED            7 OUTER ITERATIONS 
       AND A TOTAL OF         13 INNER ITERATIONS.
    ------------------------------------------------

 NO OUTPUT CONTROL FOR STRESS PERIOD   34   TIME STEP   15
 
 SOLVING FOR HEAD 
                                                   Max.-Head-Change                         Max.-Flux-Residual
  Residual-Control   Outer-Iter.   Inner-Iter.     Column Row Layer    Maximum-Head-Change  Column Row Layer    Maximum-Flux-Residual          L2-NORM 
          0                 1           2             4    8     1       0.6165796877E-01       4    8    1         0.3362594110E+01      0.4481668899E+01
          0                 2           2             4    8     1       0.2522169556E-01       4    8    1         0.1371515920E+01      0.1401711398E+01
          0                 3           2             4    7     1      -0.3442828187E-01       5    8    1        -0.1877758335E+01      0.4384992722E+01
          0                 4           2             4    7     1       0.3593284868E-01       5    6    1         0.1994508117E+01      0.4558272230E+01
          0                 5           2             4    8     1       0.1029042164E-01       4    8    1         0.5931920799E+00      0.6129056755E+00
          0                 6           2             4    8     1       0.4535970617E-02       4    8    1         0.2607930761E+00      0.2608724117E+00
          0                 7           2             4    8     1       0.1999389115E-02       4    8    1         0.1149547572E+00      0.1149576592E+00
          0                 8           2             4    8     1       0.8812881873E-03       4    8    1         0.5066921725E-01      0.5066962382E-01
          0                 9           2             4    8     1       0.3884480854E-03       4    8    1         0.2233342834E-01      0.2233357918E-01
          0                10           2             4    8     1       0.1712153326E-03       4    8    1         0.9843759719E-02      0.9843824806E-02
          0                11           1             4    8     1       0.7546524941E-04       4    8    1         0.4338716003E-02      0.4338744604E-02

    ------------------------------------------------
       NWT REQUIRED           11 OUTER ITERATIONS 
       AND A TOTAL OF         21 INNER ITERATIONS.
    ------------------------------------------------

 NO OUTPUT CONTROL FOR STRESS PERIOD   34   TIME STEP   16
 
 SOLVING FOR HEAD 
                                                   Max.-Head-Change                         Max.-Flux-Residual
  Residual-Control   Outer-Iter.   Inner-Iter.     Column Row Layer    Maximum-Head-Change  Column Row Layer    Maximum-Flux-Residual          L2-NORM 
          0                 1           2             4    8     1       0.2154373598E+00       4    8    1         0.1172479163E+02      0.1205594755E+02
          0                 2           2             4    8     1       0.8811930147E-01       4    8    1         0.4794500566E+01      0.4802345593E+01
          0                 3           2             5    7     1      -0.3430739121E-01       5    8    1        -0.1874683167E+01      0.4186107380E+01
          0                 4           2             4    7     1       0.3608086726E-01       5    6    1         0.1994631355E+01      0.4763026035E+01
          0                 5           2             4    8     1       0.1455961450E-01       4    8    1         0.7936762075E+00      0.8079142275E+00
          0                 6           2             4    8     1       0.5955259794E-02       4    8    1         0.3239984517E+00      0.3240564516E+00
          0                 7           2             4    8     1       0.2435837485E-02       4    8    1         0.1325230035E+00      0.1325278309E+00
          0                 8           2             4    8     1       0.9963112698E-03       4    8    1         0.5420485338E-01      0.5420629124E-01
          0                 9           2             4    8     1       0.4075130703E-03       4    8    1         0.2217098151E-01      0.2217154920E-01
          0                10           2             4    8     1       0.1666817227E-03       4    8    1         0.9068416524E-02      0.9068647552E-02
          0                11           1             4    8     1       0.6817645272E-04       4    8    1         0.3709180079E-02      0.3709274465E-02

    ------------------------------------------------
       NWT REQUIRED           11 OUTER ITERATIONS 
       AND A TOTAL OF         21 INNER ITERATIONS.
    ------------------------------------------------

 NO OUTPUT CONTROL FOR STRESS PERIOD   34   TIME STEP   17
 
 SOLVING FOR HEAD 
                                                   Max.-Head-Change                         Max.-Flux-Residual
  Residual-Control   Outer-Iter.   Inner-Iter.     Column Row Layer    Maximum-Head-Change  Column Row Layer    Maximum-Flux-Residual          L2-NORM 
          0                 1           2             4    8     1       0.1975508382E+00       4    8    1         0.1073340475E+02      0.1529764473E+02
          0                 2           2             4    8     1       0.8117139271E-01       4    8    1         0.4408920340E+01      0.6134098480E+01
          0                 3           2             4    6     1      -0.3411943883E-01       5    8    1        -0.1869913623E+01      0.3746914556E+01
          0                 4           2             4    7     1       0.3604028243E-01       4    6    1         0.1994715008E+01      0.4699267467E+01
          0                 5           2             4    8     1       0.1439231517E-01       4    8    1         0.8273173169E+00      0.1163171272E+01
          0                 6           2             4    8     1       0.6357531245E-02       4    8    1         0.3648083346E+00      0.5038648197E+00
          0                 7           2             4    8     1       0.2808261756E-02       4    8    1         0.1611480278E+00      0.2205935800E+00
          0                 8           2             4    8     1       0.1240446040E-02       4    8    1         0.7118113130E-01      0.9658934471E-01
          0                 9           2             4    8     1       0.5479102397E-03       4    8    1         0.3144096466E-01      0.4229971810E-01
          0                10           2             4    8     1       0.2420094146E-03       4    8    1         0.1388730608E-01      0.1852752455E-01
                                                   Max.-Head-Change                         Max.-Flux-Residual
  Residual-Control   Outer-Iter.   Inner-Iter.     Column Row Layer    Maximum-Head-Change  Column Row Layer    Maximum-Flux-Residual          L2-NORM 
          0                11           2             4    8     1       0.1068923117E-03       4    8    1         0.6133825674E-02      0.8116495614E-02
          0                12           1             4    8     1       0.4721196619E-04       4    8    1         0.2709169658E-02      0.3556234909E-02

    ------------------------------------------------
       NWT REQUIRED           12 OUTER ITERATIONS 
       AND A TOTAL OF         23 INNER ITERATIONS.
    ------------------------------------------------

 NO OUTPUT CONTROL FOR STRESS PERIOD   34   TIME STEP   18
 
 SOLVING FOR HEAD 
                                                   Max.-Head-Change                         Max.-Flux-Residual
  Residual-Control   Outer-Iter.   Inner-Iter.     Column Row Layer    Maximum-Head-Change  Column Row Layer    Maximum-Flux-Residual          L2-NORM 
          0                 1           2             5    7     1       0.1985421562E+00       5    7    1         0.1083225137E+02      0.1583090633E+02
          0                 2           2             5    7     1       0.8044313758E-01       5    7    1         0.4415801818E+01      0.6442859032E+01
          0                 3           2             4    6     1      -0.3411915891E-01       4    6    1        -0.1858417017E+01      0.3371446503E+01
          0                 4           2             4    7     1       0.3603824319E-01       4    6    1         0.1994819244E+01      0.4530751121E+01
          0                 5           2             4    8     1       0.1422106350E-01       5    7    1         0.8197584111E+00      0.1334225761E+01
          0                 6           2             4    8     1       0.6365088682E-02       4    8    1         0.3608833569E+00      0.5875194954E+00
          0                 7           2             4    8     1       0.2848545805E-02       4    8    1         0.1615221130E+00      0.2606665220E+00
          0                 8           2             4    8     1       0.1274644320E-02       4    8    1         0.7228330198E-01      0.1156618105E+00
          0                 9           2             4    8     1       0.5702990711E-03       4    8    1         0.3234378033E-01      0.5132650280E-01
          0                10           2             4    8     1       0.2551320153E-03       4    8    1         0.1447076212E-01      0.2277922021E-01
                                                   Max.-Head-Change                         Max.-Flux-Residual
  Residual-Control   Outer-Iter.   Inner-Iter.     Column Row Layer    Maximum-Head-Change  Column Row Layer    Maximum-Flux-Residual          L2-NORM 
          0                11           2             4    8     1       0.1141239297E-03       4    8    1         0.6473523181E-02      0.1011067012E-01
          0                12           1             4    8     1       0.5104329880E-04       4    8    1         0.2895606343E-02      0.4488108651E-02

    ------------------------------------------------
       NWT REQUIRED           12 OUTER ITERATIONS 
       AND A TOTAL OF         23 INNER ITERATIONS.
    ------------------------------------------------

 NO OUTPUT CONTROL FOR STRESS PERIOD   34   TIME STEP   19
 
 SOLVING FOR HEAD 
                                                   Max.-Head-Change                         Max.-Flux-Residual
  Residual-Control   Outer-Iter.   Inner-Iter.     Column Row Layer    Maximum-Head-Change  Column Row Layer    Maximum-Flux-Residual          L2-NORM 
          0                 1           2             5    7     1       0.1805678168E+00       5    7    1         0.9839170849E+01      0.1151018078E+02
          0                 2           2             5    7     1       0.7258284238E-01       5    7    1         0.4017280479E+01      0.4035018684E+01
          0                 3           2             4    8     1      -0.3530036562E-01       4    8    1        -0.1866804872E+01      0.4179445254E+01
          0                 4           2             4    7     1       0.3602208749E-01       4    6    1         0.1994914911E+01      0.4622531720E+01
          0                 5           2             5    7     1       0.1341493752E-01       5    7    1         0.7851552254E+00      0.8148326750E+00
          0                 6           2             5    7     1       0.5806362203E-02       5    7    1         0.3395020258E+00      0.3398494766E+00
          0                 7           2             5    7     1       0.2511356427E-02       5    7    1         0.1469180495E+00      0.1469312225E+00
          0                 8           2             5    7     1       0.1086044516E-02       5    7    1         0.6354067340E-01      0.6354250778E-01
          0                 9           2             5    7     1       0.4696451876E-03       5    7    1         0.2747754115E-01      0.2747813021E-01
          0                10           2             5    7     1       0.2030880718E-03       5    7    1         0.1188200722E-01      0.1188224672E-01
          0                11           1             5    7     1       0.8781992289E-04       5    7    1         0.5138005846E-02      0.5138108166E-02

    ------------------------------------------------
       NWT REQUIRED           11 OUTER ITERATIONS 
       AND A TOTAL OF         21 INNER ITERATIONS.
    ------------------------------------------------

 NO OUTPUT CONTROL FOR STRESS PERIOD   34   TIME STEP   20
 
 SOLVING FOR HEAD 
                                                   Max.-Head-Change                         Max.-Flux-Residual
  Residual-Control   Outer-Iter.   Inner-Iter.     Column Row Layer    Maximum-Head-Change  Column Row Layer    Maximum-Flux-Residual          L2-NORM 
          0                 1           2             5    7     1       0.1157363782E+00       5    7    1         0.6327260861E+01      0.7752302973E+01
          0                 2           2             5    6     1       0.1825011491E-01       5    6    1         0.1005364031E+01      0.1105467398E+01
          0                 3           2             4    7     1      -0.3441246052E-01       4    8    1        -0.1877443840E+01      0.4431821615E+01
          0                 4           2             4    7     1       0.3606855759E-01       4    6    1         0.1994971605E+01      0.4472197635E+01
          0                 5           2             5    6     1       0.9626378295E-02       5    6    1         0.5602478913E+00      0.5969887643E+00
          0                 6           2             5    6     1       0.4183264813E-02       5    6    1         0.2437410030E+00      0.2442805183E+00
          0                 7           2             5    6     1       0.1815907811E-02       5    6    1         0.1058881563E+00      0.1059066252E+00
          0                 8           2             5    6     1       0.7880777765E-03       5    6    1         0.4596069836E-01      0.4596250320E-01
          0                 9           2             5    6     1       0.3419940388E-03       5    6    1         0.1994554942E-01      0.1994601878E-01
          0                10           2             5    6     1       0.1484083364E-03       5    6    1         0.8655348051E-02      0.8655528054E-02
          0                11           1             5    6     1       0.6440086906E-04       5    6    1         0.3755903385E-02      0.3755996859E-02

    ------------------------------------------------
       NWT REQUIRED           11 OUTER ITERATIONS 
       AND A TOTAL OF         21 INNER ITERATIONS.
    ------------------------------------------------

 NO OUTPUT CONTROL FOR STRESS PERIOD   34   TIME STEP   21
 
 SOLVING FOR HEAD 
                                                   Max.-Head-Change                         Max.-Flux-Residual
  Residual-Control   Outer-Iter.   Inner-Iter.     Column Row Layer    Maximum-Head-Change  Column Row Layer    Maximum-Flux-Residual          L2-NORM 
          0                 1           2             5    6     1       0.2289231441E+00       5    6    1         0.1265341485E+02      0.1471274552E+02
          0                 2           2             5    6     1       0.9200237853E-01       5    6    1         0.5075188423E+01      0.5724739161E+01
          0                 3           2             4    8     1      -0.3334817883E-01       5    7    1        -0.1880174908E+01      0.3851941436E+01
          0                 4           2             5    6     1       0.3571333857E-01       4    6    1         0.1994896166E+01      0.4599331353E+01
          0                 5           2             5    6     1       0.1435495837E-01       5    6    1         0.7936670703E+00      0.1059242680E+01
          0                 6           2             5    6     1       0.5770192167E-02       5    6    1         0.3183079628E+00      0.4413514168E+00
          0                 7           2             4    7     1       0.2341719909E-02       4    7    1         0.1346934727E+00      0.1857832336E+00
          0                 8           2             4    7     1       0.1031607476E-02       4    7    1         0.5933924469E-01      0.7852968990E-01
          0                 9           2             4    7     1       0.4544326652E-03       4    7    1         0.2614038882E-01      0.3333017002E-01
          0                10           2             4    7     1       0.2001713070E-03       4    7    1         0.1151483350E-01      0.1420212048E-01
          0                11           1             4    7     1       0.8816838026E-04       4    7    1         0.5072014737E-02      0.6074260413E-02

    ------------------------------------------------
       NWT REQUIRED           11 OUTER ITERATIONS 
       AND A TOTAL OF         21 INNER ITERATIONS.
    ------------------------------------------------

 NO OUTPUT CONTROL FOR STRESS PERIOD   34   TIME STEP   22
 
 SOLVING FOR HEAD 
                                                   Max.-Head-Change                         Max.-Flux-Residual
  Residual-Control   Outer-Iter.   Inner-Iter.     Column Row Layer    Maximum-Head-Change  Column Row Layer    Maximum-Flux-Residual          L2-NORM 
          0                 1           2             4    7     1       0.2430025678E+00       4    7    1         0.1325750684E+02      0.1774425950E+02
          0                 2           2             4    7     1       0.9875082354E-01       4    7    1         0.5384776763E+01      0.7050758938E+01
          0                 3           2             5    8     1      -0.3302782631E-01       5    7    1        -0.1874427667E+01      0.3774624760E+01
          0                 4           2             4    7     1       0.3755576015E-01       4    6    1         0.1994715339E+01      0.4738571739E+01
          0                 5           2             4    7     1       0.1530898265E-01       4    7    1         0.8370268721E+00      0.1174384095E+01
          0                 6           2             4    7     1       0.6240643897E-02       5    6    1         0.3547647020E+00      0.4916705447E+00
          0                 7           2             5    6     1       0.2641567467E-02       5    6    1         0.1540146899E+00      0.2073090907E+00
          0                 8           2             5    6     1       0.1146675817E-02       5    6    1         0.6685759849E-01      0.8757920418E-01
          0                 9           2             5    6     1       0.4977383264E-03       5    6    1         0.2902152959E-01      0.3706908932E-01
          0                10           2             5    6     1       0.2160447887E-03       5    6    1         0.1259711697E-01      0.1571911461E-01
          0                11           1             5    6     1       0.9377121926E-04       5    6    1         0.5467695252E-02      0.6677622939E-02

    ------------------------------------------------
       NWT REQUIRED           11 OUTER ITERATIONS 
       AND A TOTAL OF         21 INNER ITERATIONS.
    ------------------------------------------------

 NO OUTPUT CONTROL FOR STRESS PERIOD   34   TIME STEP   23
 
 SOLVING FOR HEAD 
                                                   Max.-Head-Change                         Max.-Flux-Residual
  Residual-Control   Outer-Iter.   Inner-Iter.     Column Row Layer    Maximum-Head-Change  Column Row Layer    Maximum-Flux-Residual          L2-NORM 
          0                 1           2             4    7     1       0.2211416893E+00       4    7    1         0.1206901729E+02      0.1606480327E+02
          0                 2           2             4    7     1       0.9013822063E-01       4    7    1         0.4918044944E+01      0.6387052749E+01
          0                 3           2             5    8     1      -0.3302773732E-01       4    8    1        -0.1870583233E+01      0.3763971106E+01
          0                 4           2             4    7     1       0.3612439498E-01       4    6    1         0.1994488317E+01      0.4675183205E+01
          0                 5           2             4    7     1       0.1472409898E-01       4    7    1         0.8051849476E+00      0.1126054077E+01
          0                 6           2             4    7     1       0.6001918731E-02       5    6    1         0.3381376378E+00      0.4706692312E+00
          0                 7           2             5    6     1       0.2509216033E-02       5    6    1         0.1465323627E+00      0.1981982814E+00
          0                 8           2             5    6     1       0.1087264093E-02       5    6    1         0.6349512116E-01      0.8361366809E-01
          0                 9           2             5    6     1       0.4711006439E-03       5    6    1         0.2751236255E-01      0.3533785985E-01
          0                10           2             5    6     1       0.2041149294E-03       5    6    1         0.1192056907E-01      0.1496128475E-01
          0                11           1             5    6     1       0.8843394742E-04       5    6    1         0.5164740189E-02      0.6345105482E-02

    ------------------------------------------------
       NWT REQUIRED           11 OUTER ITERATIONS 
       AND A TOTAL OF         21 INNER ITERATIONS.
    ------------------------------------------------

 NO OUTPUT CONTROL FOR STRESS PERIOD   34   TIME STEP   24
 
 SOLVING FOR HEAD 
                                                   Max.-Head-Change                         Max.-Flux-Residual
  Residual-Control   Outer-Iter.   Inner-Iter.     Column Row Layer    Maximum-Head-Change  Column Row Layer    Maximum-Flux-Residual          L2-NORM 
          0                 1           2             4    7     1       0.2018531372E+00       4    7    1         0.1099663242E+02      0.1175976755E+02
          0                 2           2             4    7     1       0.4003537839E-01       4    7    1         0.2187454635E+01      0.2216495884E+01
          0                 3           2             4    6     1      -0.3391494343E-01       4    8    1        -0.1869349981E+01      0.4549680170E+01
          0                 4           2             4    6     1       0.3551439560E-01       4    6    1         0.1994529335E+01      0.4615029841E+01
          0                 5           2             4    7     1       0.2927509221E-02       4    7    1         0.1706750887E+00      0.2545552731E+00
          0                 6           2             4    7     1       0.2710536574E-03       4    7    1         0.1561670157E-01      0.2157973489E-01
          0                 7           1             4    7     1       0.2509385396E-04       4    7    1         0.1445624293E-02      0.1978151417E-02

    ------------------------------------------------
       NWT REQUIRED            7 OUTER ITERATIONS 
       AND A TOTAL OF         13 INNER ITERATIONS.
    ------------------------------------------------

 NO OUTPUT CONTROL FOR STRESS PERIOD   34   TIME STEP   25
 
 SOLVING FOR HEAD 
                                                   Max.-Head-Change                         Max.-Flux-Residual
  Residual-Control   Outer-Iter.   Inner-Iter.     Column Row Layer    Maximum-Head-Change  Column Row Layer    Maximum-Flux-Residual          L2-NORM 
          0                 1           2             4    6     1       0.4745387258E-01       4    6    1         0.2634180259E+01      0.4247518855E+01
          0                 2           2             4    6     1      -0.4616265497E-02       4    6    1        -0.2634098765E+00      0.4236449027E+00
          0                 3           2             4    6     1      -0.3394811992E-01       5    6    1        -0.1881571059E+01      0.4595413733E+01
          0                 4           2             4    6     1       0.3565129348E-01       4    6    1         0.1996313810E+01      0.4778464861E+01
          0                 5           2             4    6     1      -0.1418943829E-02       4    6    1        -0.8336722592E-01      0.9947496357E-01
          0                 6           1             4    6     1       0.1750915391E-04       4    6    1         0.1078176311E-02      0.1361562383E-02

    ------------------------------------------------
       NWT REQUIRED            6 OUTER ITERATIONS 
       AND A TOTAL OF         11 INNER ITERATIONS.
    ------------------------------------------------

 NO OUTPUT CONTROL FOR STRESS PERIOD   34   TIME STEP   26
 
 SOLVING FOR HEAD 
                                                   Max.-Head-Change                         Max.-Flux-Residual
  Residual-Control   Outer-Iter.   Inner-Iter.     Column Row Layer    Maximum-Head-Change  Column Row Layer    Maximum-Flux-Residual          L2-NORM 
          0                 1           2             4    6     1       0.4445186894E-01       4    6    1         0.2465649729E+01      0.3963625581E+01
          0                 2           2             4    6     1      -0.4323858369E-02       4    6    1        -0.2465581689E+00      0.3961573484E+00
          0                 3           2             4    6     1      -0.3396984961E-01       5    6    1        -0.1880284469E+01      0.4595315471E+01
          0                 4           2             4    6     1       0.3565399992E-01       4    6    1         0.1996477882E+01      0.4778665175E+01
          0                 5           2             4    6     1      -0.1419051550E-02       4    6    1        -0.8337365284E-01      0.9948139706E-01
          0                 6           1             4    6     1       0.1751048331E-04       4    6    1         0.1078254315E-02      0.1361633043E-02

    ------------------------------------------------
       NWT REQUIRED            6 OUTER ITERATIONS 
       AND A TOTAL OF         11 INNER ITERATIONS.
    ------------------------------------------------

 NO OUTPUT CONTROL FOR STRESS PERIOD   34   TIME STEP   27
 
 SOLVING FOR HEAD 
                                                   Max.-Head-Change                         Max.-Flux-Residual
  Residual-Control   Outer-Iter.   Inner-Iter.     Column Row Layer    Maximum-Head-Change  Column Row Layer    Maximum-Flux-Residual          L2-NORM 
          0                 1           2             4    6     1       0.4167294050E-01       4    6    1         0.2309694419E+01      0.3704286920E+01
          0                 2           2             4    6     1      -0.4053561120E-02       4    6    1        -0.2309640484E+00      0.3702141139E+00
          0                 3           2             4    6     1      -0.3399000303E-01       5    6    1        -0.1879058311E+01      0.4595151441E+01
          0                 4           2             4    6     1       0.3565657038E-01       4    6    1         0.1996633563E+01      0.4778856367E+01
          0                 5           2             4    6     1      -0.1419153834E-02       4    6    1        -0.8337978753E-01      0.9948750090E-01
          0                 6           1             4    6     1       0.1751171459E-04       4    6    1         0.1078327250E-02      0.1361719791E-02

    ------------------------------------------------
       NWT REQUIRED            6 OUTER ITERATIONS 
       AND A TOTAL OF         11 INNER ITERATIONS.
    ------------------------------------------------

 NO OUTPUT CONTROL FOR STRESS PERIOD   34   TIME STEP   28
 
 SOLVING FOR HEAD 
                                                   Max.-Head-Change                         Max.-Flux-Residual
  Residual-Control   Outer-Iter.   Inner-Iter.     Column Row Layer    Maximum-Head-Change  Column Row Layer    Maximum-Flux-Residual          L2-NORM 
          0                 1           2             4    8     1       0.1265662358E+00       4    8    1         0.6893700740E+01      0.7703931193E+01
          0                 2           2             4    8     1       0.5074423900E-01       4    8    1         0.2760827654E+01      0.2782137341E+01
          0                 3           2             4    6     1      -0.3400446438E-01       5    6    1        -0.1877940412E+01      0.4264772934E+01
          0                 4           2             4    6     1       0.3565735074E-01       4    6    1         0.1996774506E+01      0.4624544851E+01
          0                 5           2             4    8     1       0.1191060511E-01       4    8    1         0.6856746154E+00      0.6923722394E+00
          0                 6           2             4    8     1       0.5158667792E-02       4    8    1         0.2966589164E+00      0.2966614691E+00
          0                 7           2             4    8     1       0.2234271192E-02       4    8    1         0.1284766547E+00      0.1284776997E+00
          0                 8           2             4    8     1       0.9676733560E-03       4    8    1         0.5564298452E-01      0.5564350482E-01
          0                 9           2             4    8     1       0.4190986237E-03       4    8    1         0.2409869292E-01      0.2409892120E-01
          0                10           2             4    8     1       0.1815090279E-03       4    8    1         0.1043689482E-01      0.1043699387E-01
          0                11           1             4    8     1       0.7860945178E-04       4    8    1         0.4520054574E-02      0.4520097591E-02

    ------------------------------------------------
       NWT REQUIRED           11 OUTER ITERATIONS 
       AND A TOTAL OF         21 INNER ITERATIONS.
    ------------------------------------------------

 NO OUTPUT CONTROL FOR STRESS PERIOD   34   TIME STEP   29
 
 SOLVING FOR HEAD 
                                                   Max.-Head-Change                         Max.-Flux-Residual
  Residual-Control   Outer-Iter.   Inner-Iter.     Column Row Layer    Maximum-Head-Change  Column Row Layer    Maximum-Flux-Residual          L2-NORM 
          0                 1           2             4    8     1       0.1048205643E+00       4    8    1         0.5701065499E+01      0.6740058271E+01
          0                 2           2             5    7     1       0.1152756476E-01       5    7    1         0.6348120712E+00      0.7371736433E+00
          0                 3           2             4    8     1      -0.3421981850E-01       5    6    1        -0.1876621025E+01      0.4492367682E+01
          0                 4           2             4    6     1       0.3565402974E-01       4    6    1         0.1996916625E+01      0.4437062702E+01
          0                 5           2             5    7     1       0.9158860787E-02       5    7    1         0.5361846049E+00      0.5657797079E+00
          0                 6           2             5    7     1       0.3898883739E-02       5    7    1         0.2277758166E+00      0.2281631748E+00
          0                 7           2             5    7     1       0.1659667432E-02       5    7    1         0.9694917048E-01      0.9695734373E-01
          0                 8           2             5    7     1       0.7064700437E-03       5    7    1         0.4126779966E-01      0.4126861548E-01
          0                 9           2             5    7     1       0.3007186145E-03       5    7    1         0.1756605016E-01      0.1756634854E-01
          0                10           2             5    7     1       0.1280032952E-03       5    7    1         0.7477061314E-02      0.7477187085E-02
          0                11           1             5    7     1       0.5448492299E-04       5    7    1         0.3182599595E-02      0.3182653068E-02

    ------------------------------------------------
       NWT REQUIRED           11 OUTER ITERATIONS 
       AND A TOTAL OF         21 INNER ITERATIONS.
    ------------------------------------------------

 NO OUTPUT CONTROL FOR STRESS PERIOD   34   TIME STEP   30



 STREAM LISTING     PERIOD     34   STEP       30

 LAYER ROW COL. STREAM  RCH.  FLOW INTO     FLOW TO   FLOW OUT OF   OVRLND.     DIRECT     STREAM       STREAM     STREAM     STREAM   STREAMBED  STREAMBED
                SEG.NO.  NO.  STRM. RCH.    AQUIFER    STRM. RCH.    RUNOFF     PRECIP       ET          HEAD       DEPTH      WIDTH   CONDCTNC.   GRADIENT

   1    1    1     1     1    3.5249E+01  2.8720E-01   3.4962E+01  0.000E+00  0.000E+00  0.000E+00  1.09434E+03  1.294E+00  1.486E+01  6.688E-02  1.431E+00
   1    2    2     1     2    3.4962E+01  4.4466E-01   3.4517E+01  0.000E+00  0.000E+00  0.000E+00  1.08935E+03  1.291E+00  1.480E+01  1.036E-01  1.430E+00
   1    3    3     1     3    3.4517E+01  3.7911E-01   3.4138E+01  0.000E+00  0.000E+00  0.000E+00  1.08371E+03  1.288E+00  1.474E+01  8.841E-02  1.429E+00
   1    3    4     1     4    3.4138E+01  3.4901E-01   3.3789E+01  0.000E+00  0.000E+00  0.000E+00  1.07869E+03  1.285E+00  1.468E+01  8.145E-02  1.428E+00
   1    4    5     2     1    3.1789E+01  3.4244E-01   3.1446E+01  0.000E+00  0.000E+00  0.000E+00  1.07332E+03  1.390E+00  1.200E+01  7.800E-02  1.463E+00
   1    5    6     2     2    3.1446E+01  2.6294E-01   3.1184E+01  0.000E+00  0.000E+00  0.000E+00  1.06789E+03  1.382E+00  1.200E+01  6.000E-02  1.461E+00
   1    6    6     2     3    3.1184E+01  2.6252E-01   3.0921E+01  0.000E+00  0.000E+00  0.000E+00  1.06317E+03  1.375E+00  1.200E+01  6.000E-02  1.458E+00
   1    7    6     2     4    3.0921E+01  2.6210E-01   3.0659E+01  0.000E+00  0.000E+00  0.000E+00  1.05844E+03  1.368E+00  1.200E+01  6.000E-02  1.456E+00
   1    8    6     2     5    3.0659E+01  2.6168E-01   3.0397E+01  0.000E+00  0.000E+00  0.000E+00  1.05372E+03  1.361E+00  1.200E+01  6.000E-02  1.454E+00
   1    3    5     3     1    2.0000E+00  2.8252E-01   1.7175E+00  0.000E+00  0.000E+00  0.000E+00  1.07555E+03  1.909E+00  9.636E+00  7.227E-02  1.955E+00
   1    3    6     3     2    1.7175E+00  2.4905E-01   1.4684E+00  0.000E+00  0.000E+00  0.000E+00  1.07264E+03  1.727E+00  8.909E+00  6.682E-02  1.864E+00
   1    3    7     3     3    1.4684E+00  1.9718E-01   1.2712E+00  0.000E+00  0.000E+00  0.000E+00  1.06987E+03  1.555E+00  8.218E+00  5.547E-02  1.777E+00
   1    4    8     3     4    1.2712E+00  2.2567E-01   1.0456E+00  0.000E+00  0.000E+00  0.000E+00  1.06682E+03  1.364E+00  7.455E+00  6.709E-02  1.682E+00
   1    5    8     3     5    1.0456E+00  1.5790E-01   8.8768E-01  0.000E+00  0.000E+00  0.000E+00  1.06362E+03  1.164E+00  6.655E+00  4.991E-02  1.582E+00
   1    6    8     3     6    8.8768E-01  5.5980E-02   8.3170E-01  0.000E+00  0.000E+00  0.000E+00  1.06158E+03  1.036E+00  6.145E+00  1.844E-02  1.518E+00
   1    5   10     4     1    1.0000E+01  9.0919E-02   9.9091E+00  0.000E+00  0.000E+00  0.000E+00  1.07836E+03  6.368E-01  1.000E+01  2.500E-02  1.212E+00
   1    5    9     4     2    9.9091E+00  1.8158E-01   9.7275E+00  0.000E+00  0.000E+00  0.000E+00  1.07154E+03  6.315E-01  1.000E+01  5.000E-02  1.211E+00
   1    6    8     4     3    9.7275E+00  1.2689E-01   9.6006E+00  0.000E+00  0.000E+00  0.000E+00  1.06381E+03  6.256E-01  1.000E+01  3.500E-02  1.209E+00
   1    6    8     5     1    1.0432E+01  2.2686E-01   1.0205E+01  0.000E+00  0.000E+00  0.000E+00  1.05868E+03  6.790E-01  1.542E+01  6.166E-02  1.226E+00
   1    7    7     5     2    1.0205E+01  2.7894E-01   9.9265E+00  0.000E+00  0.000E+00  0.000E+00  1.05417E+03  6.732E-01  1.519E+01  7.594E-02  1.224E+00
   1    8    7     5     3    9.9265E+00  1.9221E-01   9.7343E+00  0.000E+00  0.000E+00  0.000E+00  1.04992E+03  6.676E-01  1.497E+01  5.241E-02  1.223E+00
   1    8    6     5     4    9.7343E+00  1.3577E-01   9.5985E+00  0.000E+00  0.000E+00  0.000E+00  1.04691E+03  6.637E-01  1.482E+01  3.706E-02  1.221E+00
   1    9    6     6     1    2.8802E+01  2.5954E-01   2.8543E+01  0.000E+00  0.000E+00  0.000E+00  1.04405E+03  1.326E+00  1.200E+01  6.000E-02  1.442E+00
   1   10    7     6     2    2.8543E+01  2.5911E-01   2.8283E+01  0.000E+00  0.000E+00  0.000E+00  1.03950E+03  1.319E+00  1.200E+01  6.000E-02  1.440E+00
   1   11    7     6     3    2.8283E+01  2.5868E-01   2.8025E+01  0.000E+00  0.000E+00  0.000E+00  1.03495E+03  1.311E+00  1.200E+01  6.000E-02  1.437E+00
   1   12    7     6     4    2.8025E+01  2.5824E-01   2.7767E+01  0.000E+00  0.000E+00  0.000E+00  1.03040E+03  1.304E+00  1.200E+01  6.000E-02  1.435E+00
   1   13    7     6     5    2.7767E+01  6.0132E-03   2.7760E+01  0.000E+00  0.000E+00  0.000E+00  1.02721E+03  1.300E+00  1.200E+01  2.400E-02  8.352E-02
   1   14    9     7     1    1.5000E+02  1.3441E+00   1.4866E+02  0.000E+00  0.000E+00  0.000E+00  1.03987E+03  2.288E+00  5.529E+01  5.593E-01  8.011E-01
   1   13    8     7     2    1.4866E+02  1.8669E+00   1.4679E+02  0.000E+00  0.000E+00  0.000E+00  1.03478E+03  2.279E+00  5.526E+01  6.148E-01  1.012E+00
   1   13    7     7     3    1.4679E+02  1.5248E+00   1.4526E+02  0.000E+00  0.000E+00  0.000E+00  1.02969E+03  2.270E+00  5.522E+01  5.584E-01  9.102E-01
   1   13    6     8     1    1.7302E+02  9.8297E-01   1.7204E+02  0.000E+00  0.000E+00  0.000E+00  1.02484E+03  2.969E+00  4.305E+01  4.386E-01  7.470E-01
   1   13    5     8     2    1.7204E+02  2.2452E-01   1.7182E+02  0.000E+00  0.000E+00  0.000E+00  1.01859E+03  2.965E+00  4.299E+01  4.381E-01  1.708E-01
   1   13    4     8     3    1.7182E+02 -2.2813E+00   1.7410E+02  0.000E+00  0.000E+00  0.000E+00  1.01235E+03  2.971E+00  4.308E+01  4.390E+00 -1.732E-01
   1   13    3     8     4    1.7410E+02 -3.5543E+00   1.7765E+02  0.000E+00  0.000E+00  0.000E+00  1.00612E+03  2.990E+00  4.336E+01  4.418E+00 -2.682E-01
   1   13    2     8     5    1.7765E+02 -2.5166E+00   1.8017E+02  0.000E+00  0.000E+00  0.000E+00  9.99884E+02  3.009E+00  4.363E+01  4.447E+00 -1.887E-01
   1   13    1     8     6    1.8017E+02 -1.9282E+00   1.8210E+02  0.000E+00  0.000E+00  0.000E+00  9.94898E+02  3.023E+00  4.384E+01  2.680E+00 -2.398E-01
   1    8    6     9     1    1.1194E+01  0.0000E+00   1.1194E+01  0.000E+00  0.000E+00  0.000E+00  1.08117E+03  2.425E+00  4.000E+00  0.000E+00  1.808E+00
   1    8    5     9     2    1.1194E+01  0.0000E+00   1.1194E+01  0.000E+00  0.000E+00  0.000E+00  1.08067E+03  2.425E+00  4.000E+00  0.000E+00  1.808E+00





UNSATURATED ZONE PACKAGE VOLUMETRIC BUDGET FOR  TIME STEP    30 STRESS PERIOD   34
  ------------------------------------------------------------------------------



     CUMULATIVE VOLUMES      L**3       RATES FOR THIS TIME STEP      L**3/T
     ------------------                 ------------------------

           IN:                                      IN:
           ---                                      ---
        INFILTRATION =  1502087497.2215          INFILTRATION =          12.0414

          OUT:                                     OUT:
          ----                                     ----
              UZF ET =  1275414328.7216                UZF ET =          12.0675
        UZF RECHARGE =    43192774.0724          UZF RECHARGE =          10.7799

            IN - OUT =   183480394.4276              IN - OUT =         -10.8059

          STORAGE:                                 STORAGE:
          --------                                 --------
      STORAGE CHANGE =   183635506.8586        STORAGE CHANGE =         -10.8059

 PERCENT DISCREPANCY IS DIFFERENCE BETWEEN IN-OUT MINUS CHANGE IN STORAGE
 DIVIDED BY THE AVERAGE OF IN AND OUT TIMES 100

 PERCENT DISCREPANCY =          -0.00     PERCENT DISCREPANCY =           0.00






1
  VOLUMETRIC BUDGET FOR AGRICULTURAL FIELDS AT  END OF TIME STEP   30, STRESS PERIOD  34
  ------------------------------------------------------------------------------

     CUMULATIVE VOLUMES      L**3       RATES FOR THIS TIME STEP      L**3/T
     ------------------                 ------------------------

           IN:                                      IN:
           ---                                      ---
           AG WELLS      =   463899968.0000             AG WELLS      =           0.0000
      DIVERSION SEGMENTS =   964595968.0000        DIVERSION SEGMENTS =          11.1937
           GW IRRIGATION =           0.0000             GW IRRIGATION =           0.0000
           SW IRRIGATION =           0.0000             SW IRRIGATION =           0.0000
        SYSTEM LOSSES GW =           0.0000          SYSTEM LOSSES GW =           0.0000
        SYSTEM LOSSES SW =           0.0000          SYSTEM LOSSES SW =           0.0000

                TOTAL IN =  1428495872.0000                  TOTAL IN =          11.1937

          OUT:                                     OUT:
          ----                                     ----
           AG WELLS      =           0.0000             AG WELLS      =           0.0000
      DIVERSION SEGMENTS =           0.0000        DIVERSION SEGMENTS =           0.0000
           GW IRRIGATION =   463899968.0000             GW IRRIGATION =           0.0000
           SW IRRIGATION =   964615104.0000             SW IRRIGATION =          11.1939
        SYSTEM LOSSES GW =           0.0000          SYSTEM LOSSES GW =           0.0000
        SYSTEM LOSSES SW =           0.0000          SYSTEM LOSSES SW =           0.0000

               TOTAL OUT =  1428515072.0000                 TOTAL OUT =          11.1939

                IN - OUT =      -19200.0000                  IN - OUT =      -2.2316E-04

     PERCENT DISCREPANCY =          -0.00         PERCENT DISCREPANCY =          -0.00



1
  VOLUMETRIC BUDGET FOR ENTIRE MODEL AT END OF TIME STEP   30, STRESS PERIOD  34
  ------------------------------------------------------------------------------

     CUMULATIVE VOLUMES      L**3       RATES FOR THIS TIME STEP      L**3/T
     ------------------                 ------------------------

           IN:                                      IN:
           ---                                      ---
             STORAGE     =   751254784.0000               STORAGE     =           4.0100
       CONSTANT HEAD     =           0.0000         CONSTANT HEAD     =           0.0000
     HEAD DEP BOUNDS     =    24836196.0000       HEAD DEP BOUNDS     =           0.2863
      STREAM LEAKAGE     =  1043559744.0000        STREAM LEAKAGE     =          12.2381
        UZF RECHARGE     =    43192772.0000          UZF RECHARGE     =          10.7799
               GW ET     =           0.0000                 GW ET     =           0.0000
     SURFACE LEAKAGE     =           0.0000       SURFACE LEAKAGE     =           0.0000
           AG WELLS      =           0.0000             AG WELLS      =           0.0000

                TOTAL IN =  1862843648.0000                  TOTAL IN =          27.3144

          OUT:                                     OUT:
          ----                                     ----
             STORAGE     =   438586720.0000               STORAGE     =          16.7431
       CONSTANT HEAD     =           0.0000         CONSTANT HEAD     =           0.0000
     HEAD DEP BOUNDS     =    25255540.0000       HEAD DEP BOUNDS     =           0.2895
      STREAM LEAKAGE     =   932285952.0000        STREAM LEAKAGE     =          10.2804
        UZF RECHARGE     =           0.0000          UZF RECHARGE     =           0.0000
               GW ET     =     2818101.5000                 GW ET     =           0.0000
     SURFACE LEAKAGE     =           0.0000       SURFACE LEAKAGE     =           0.0000
           AG WELLS      =   463899968.0000             AG WELLS      =           0.0000

               TOTAL OUT =  1862846208.0000                 TOTAL OUT =          27.3130

                IN - OUT =       -2560.0000                  IN - OUT =       1.3714E-03

     PERCENT DISCREPANCY =          -0.00         PERCENT DISCREPANCY =           0.01






         TIME SUMMARY AT END OF TIME STEP   30 IN STRESS PERIOD   34
                    SECONDS     MINUTES      HOURS       DAYS        YEARS
                    -----------------------------------------------------------
   TIME STEP LENGTH  87667.      1461.1      24.352      1.0147     2.77799E-03
 STRESS PERIOD TIME 2.63000E+06  43833.      730.56      30.440     8.33397E-02
         TOTAL TIME 8.68762E+07 1.44794E+06  24132.      1005.5      2.7529    
1
1
                            STRESS PERIOD NO.   35, LENGTH =   2630000.    
                            -----------------------------------------------

                              NUMBER OF TIME STEPS =    30

                               MULTIPLIER FOR DELT =     1.000

                            INITIAL TIME STEP SIZE =   87666.66    

 REUSING NON-PARAMETER GHB CELLS FROM LAST STRESS PERIOD

      2 GHB CELLS

 REUSING STREAM SEGMENT DATA FROM LAST STRESS PERIOD



            AREAL INFILTRATION RATE
 READING ON UNIT   19 WITH FORMAT: (FREE)              

            1           2           3           4           5           6           7           8           9          10
 ........................................................................................................................
   1   1.0000E-10  2.0000E-10   0.000       0.000       0.000       0.000       0.000       0.000       0.000       0.000    
   2   2.0000E-10  1.0000E-10  2.0000E-10   0.000       0.000      8.0000E-10  8.0000E-10  5.0000E-10   0.000       0.000    
   3    0.000      5.0000E-10  1.0000E-10  1.0000E-10  8.0000E-10  8.0000E-10  5.0000E-10  5.0000E-10   0.000       0.000    
   4   8.0000E-10  5.0000E-10  1.0000E-10  1.0000E-10  1.0000E-10  1.0000E-10  1.0000E-10  1.0000E-10  2.0000E-10   0.000    
   5   8.0000E-10  5.0000E-10  1.0000E-10  1.0000E-10  1.0000E-10  1.0000E-10  1.0000E-10  1.0000E-10  1.0000E-10  1.0000E-10
   6   8.0000E-10  5.0000E-10  5.0000E-10  2.0000E-10  2.0000E-10  1.0000E-10  1.0000E-10  1.0000E-10  1.0000E-10  5.0000E-10
   7   8.0000E-10  5.0000E-10  5.0000E-10  2.0000E-10  2.0000E-10  1.0000E-10  1.0000E-10  2.0000E-10  2.0000E-10   0.000    
   8    0.000      5.0000E-10  5.0000E-10  2.0000E-10  2.0000E-10  1.0000E-10  1.0000E-10  2.0000E-10  5.0000E-10   0.000    
   9    0.000      5.0000E-10  5.0000E-10  2.0000E-10  2.0000E-10  1.0000E-10  1.0000E-10  2.0000E-10  5.0000E-10   0.000    
  10    0.000      5.0000E-10  5.0000E-10  2.0000E-10  2.0000E-10  1.0000E-10  1.0000E-10  2.0000E-10  5.0000E-10  8.0000E-10
  11    0.000      1.0000E-10  1.0000E-10  1.0000E-10  1.0000E-10  1.0000E-10  1.0000E-10  2.0000E-10  5.0000E-10   0.000    
  12   1.0000E-10  1.0000E-10  1.0000E-10  1.0000E-10  1.0000E-10  1.0000E-10  1.0000E-10  1.0000E-10  2.0000E-10   0.000    
  13   1.0000E-10  1.0000E-10  2.0000E-10  2.0000E-10  2.0000E-10  2.0000E-10  2.0000E-10  1.0000E-10  1.0000E-10   0.000    
  14    0.000      2.0000E-10  5.0000E-10  5.0000E-10  5.0000E-10  5.0000E-10  5.0000E-10  2.0000E-10  1.0000E-10   0.000    
  15    0.000       0.000      8.0000E-10  8.0000E-10  8.0000E-10  8.0000E-10   0.000       0.000       0.000       0.000    

                  ET RATE =  5.000000E-09

 USING ET EXTINCTION DEPTH FROM PREVIOUS STRESS PERIOD. CURRENT PERIOD IS:      35

 USING EXTINCTION WATER CONTENT FROM PREVIOUS STRESS PERIOD. CURRENT PERIOD IS:      35

 USING AIR ENTRY PRESSURE FROM PREVIOUS STRESS PERIOD. CURRENT PERIOD IS:      35

 USING ROOT PRESSURE HEAD FROM PREVIOUS STRESS PERIOD. CURRENT PERIOD IS:      35

 USING ROOT ACTIVITY FROM PREVIOUS STRESS PERIOD. CURRENT PERIOD IS:      35

 PROCESSING AG STRESS PERIOD DATA

 READING AG STRESS PERIOD DATA

 READING IRRIGATION SEGMENT

 READING IRRIGATION WELL

 READING SUPPLEMENTAL WELL

 END PROCESSING AG STRESS PERIOD DATA OPTIONS
 
 SOLVING FOR HEAD 
                                                   Max.-Head-Change                         Max.-Flux-Residual
  Residual-Control   Outer-Iter.   Inner-Iter.     Column Row Layer    Maximum-Head-Change  Column Row Layer    Maximum-Flux-Residual          L2-NORM 
          0                 1           2             5    7     1       0.1711613857E+00       5    7    1         0.9479353786E+01      0.1043099789E+02
          0                 2           2             5    7     1       0.6695647707E-01       5    7    1         0.3705298129E+01      0.3970319140E+01
          0                 3           2             5    7     1       0.2627039458E-01       5    7    1         0.1454543291E+01      0.1563624780E+01
          0                 4           2             5    7     1       0.1030732529E-01       5    7    1         0.5706278853E+00      0.6167762392E+00
          0                 5           2             5    7     1       0.4044175961E-02       5    7    1         0.2238953797E+00      0.2434377036E+00
          0                 6           2             5    7     1       0.1586787476E-02       5    7    1         0.8784728153E-01      0.9611955850E-01
          0                 7           2             5    7     1       0.6226042482E-03       5    7    1         0.3446817669E-01      0.3796866832E-01
          0                 8           2             5    7     1       0.2442925233E-03       5    7    1         0.1352422335E-01      0.1500496001E-01
          0                 9           1             5    7     1       0.9585465668E-04       5    7    1         0.5306537200E-02      0.5932672333E-02

    ------------------------------------------------
       NWT REQUIRED            9 OUTER ITERATIONS 
       AND A TOTAL OF         17 INNER ITERATIONS.
    ------------------------------------------------

 NO OUTPUT CONTROL FOR STRESS PERIOD   35   TIME STEP    1
 
 SOLVING FOR HEAD 
                                                   Max.-Head-Change                         Max.-Flux-Residual
  Residual-Control   Outer-Iter.   Inner-Iter.     Column Row Layer    Maximum-Head-Change  Column Row Layer    Maximum-Flux-Residual          L2-NORM 
          0                 1           2             4    6     1       0.2353600601E+00       4    6    1         0.1284873365E+02      0.1312771080E+02
          0                 2           2             4    6     1       0.9576625098E-01       4    6    1         0.5227229752E+01      0.5232874783E+01
          0                 3           2             4    6     1       0.3684554777E-01       4    6    1         0.2014938373E+01      0.2032131497E+01
          0                 4           2             4    6     1       0.1717639671E-01       4    6    1         0.9339607940E+00      0.9716046178E+00
          0                 5           2             4    6     1       0.6997109170E-02       4    6    1         0.3820423583E+00      0.3821646210E+00
          0                 6           2             4    6     1       0.2850352442E-02       4    6    1         0.1555898179E+00      0.1555920765E+00
          0                 7           2             4    6     1       0.1161121239E-02       4    6    1         0.6338267131E-01      0.6338311859E-01
          0                 8           2             4    6     1       0.4729949002E-03       4    6    1         0.2581955260E-01      0.2581973887E-01
          0                 9           2             4    6     1       0.1926794223E-03       4    6    1         0.1051786775E-01      0.1051794322E-01
          0                10           1             4    6     1       0.7848997918E-04       4    6    1         0.4284563602E-02      0.4284594348E-02

    ------------------------------------------------
       NWT REQUIRED           10 OUTER ITERATIONS 
       AND A TOTAL OF         19 INNER ITERATIONS.
    ------------------------------------------------

 NO OUTPUT CONTROL FOR STRESS PERIOD   35   TIME STEP    2
 
 SOLVING FOR HEAD 
                                                   Max.-Head-Change                         Max.-Flux-Residual
  Residual-Control   Outer-Iter.   Inner-Iter.     Column Row Layer    Maximum-Head-Change  Column Row Layer    Maximum-Flux-Residual          L2-NORM 
          0                 1           2             4    6     1       0.1430966613E+00       4    6    1         0.7803447443E+01      0.8256243056E+01
          0                 2           2             4    6     1       0.5866429350E-02       4    6    1         0.3211039243E+00      0.4191291478E+00
          0                 3           2             5    7     1      -0.2246241480E-02       5    7    1        -0.1259841609E+00      0.2879963306E+00
          0                 4           2             4    7     1       0.2236657865E-02       5    8    1         0.1238786581E+00      0.2934531061E+00
          0                 5           2             4    6     1       0.1786954444E-03       4    6    1         0.1040834213E-01      0.1303785368E-01
          0                 6           1             4    6     1       0.1767865444E-04       4    6    1         0.1017158896E-02      0.1037296458E-02

    ------------------------------------------------
       NWT REQUIRED            6 OUTER ITERATIONS 
       AND A TOTAL OF         11 INNER ITERATIONS.
    ------------------------------------------------

 NO OUTPUT CONTROL FOR STRESS PERIOD   35   TIME STEP    3
 
 SOLVING FOR HEAD 
                                                   Max.-Head-Change                         Max.-Flux-Residual
  Residual-Control   Outer-Iter.   Inner-Iter.     Column Row Layer    Maximum-Head-Change  Column Row Layer    Maximum-Flux-Residual          L2-NORM 
          0                 1           2             5    7     1      -0.2438103424E-01       5    7    1        -0.1364603211E+01      0.2579458204E+01
          0                 2           2             5    7     1       0.2371577015E-02       5    7    1         0.1364552342E+00      0.2579388092E+00
          0                 3           2             5    7     1      -0.2244690987E-02       5    7    1        -0.1258695112E+00      0.2934101746E+00
          0                 4           2             4    7     1       0.2249997890E-02       5    8    1         0.1245261349E+00      0.2986867455E+00
          0                 5           1             4    7     1      -0.8820934313E-04       5    8    1        -0.5204042125E-02      0.7798433659E-02

    ------------------------------------------------
       NWT REQUIRED            5 OUTER ITERATIONS 
       AND A TOTAL OF          9 INNER ITERATIONS.
    ------------------------------------------------

 NO OUTPUT CONTROL FOR STRESS PERIOD   35   TIME STEP    4
 
 SOLVING FOR HEAD 
                                                   Max.-Head-Change                         Max.-Flux-Residual
  Residual-Control   Outer-Iter.   Inner-Iter.     Column Row Layer    Maximum-Head-Change  Column Row Layer    Maximum-Flux-Residual          L2-NORM 
          0                 1           2             4    7     1       0.1423508964E+00       4    7    1         0.7797505378E+01      0.1080963432E+02
          0                 2           2             4    7     1       0.5688949245E-01       4    7    1         0.3100721710E+01      0.4178176878E+01
          0                 3           2             4    7     1       0.2050033914E-01       4    7    1         0.1123794256E+01      0.1510047967E+01
          0                 4           2             4    7     1       0.1042415430E-01       4    7    1         0.5634572269E+00      0.7922590674E+00
          0                 5           2             4    7     1       0.4168479881E-02       4    7    1         0.2272855699E+00      0.3021172873E+00
          0                 6           2             4    7     1       0.1666494531E-02       4    7    1         0.9088779447E-01      0.1198978080E+00
          0                 7           2             4    7     1       0.6670510112E-03       4    7    1         0.3638217209E-01      0.4767931606E-01
          0                 8           2             4    7     1       0.2665879134E-03       4    7    1         0.1454155336E-01      0.1893234273E-01
          0                 9           1             4    7     1       0.1065398281E-03       4    7    1         0.5811517651E-02      0.7518089231E-02
          0                10           1             4    7     1       0.4257731731E-04       4    7    1         0.2322525326E-02      0.2985793319E-02

    ------------------------------------------------
       NWT REQUIRED           10 OUTER ITERATIONS 
       AND A TOTAL OF         18 INNER ITERATIONS.
    ------------------------------------------------

 NO OUTPUT CONTROL FOR STRESS PERIOD   35   TIME STEP    5
 
 SOLVING FOR HEAD 
                                                   Max.-Head-Change                         Max.-Flux-Residual
  Residual-Control   Outer-Iter.   Inner-Iter.     Column Row Layer    Maximum-Head-Change  Column Row Layer    Maximum-Flux-Residual          L2-NORM 
          0                 1           2             4    7     1       0.1406009252E+00       4    7    1         0.7685225784E+01      0.1008329080E+02
          0                 2           2             4    7     1       0.4668838620E-02       4    7    1         0.2522247088E+00      0.3865397599E+00
          0                 3           2             4    8     1      -0.2187008848E-02       4    8    1        -0.1224823000E+00      0.2858446510E+00
          0                 4           2             5    8     1       0.2216064842E-02       5    8    1         0.1254498628E+00      0.2858660915E+00
          0                 5           2             4    6     1       0.1876767062E-03       4    6    1         0.1053724977E-01      0.1824918865E-01
          0                 6           1             4    6     1       0.1800148606E-04       4    6    1         0.1013540138E-02      0.1562091344E-02

    ------------------------------------------------
       NWT REQUIRED            6 OUTER ITERATIONS 
       AND A TOTAL OF         11 INNER ITERATIONS.
    ------------------------------------------------

 NO OUTPUT CONTROL FOR STRESS PERIOD   35   TIME STEP    6
 
 SOLVING FOR HEAD 
                                                   Max.-Head-Change                         Max.-Flux-Residual
  Residual-Control   Outer-Iter.   Inner-Iter.     Column Row Layer    Maximum-Head-Change  Column Row Layer    Maximum-Flux-Residual          L2-NORM 
          0                 1           2             5    6     1      -0.2743966915E-01       5    6    1        -0.1543247838E+01      0.2737979488E+01
          0                 2           2             5    6     1       0.2681529503E-02       5    6    1         0.1536629618E+00      0.2666626422E+00
          0                 3           2             5    6     1      -0.2249772683E-02       5    6    1        -0.1278214257E+00      0.2976156395E+00
          0                 4           2             5    8     1       0.2217659534E-02       5    8    1         0.1255313840E+00      0.2956543303E+00
          0                 5           2             4    6     1       0.1789242083E-03       4    6    1         0.1037143257E-01      0.1210754344E-01
          0                 6           1             4    6     1       0.1851976836E-04       4    6    1         0.1065538922E-02      0.1095350310E-02

    ------------------------------------------------
       NWT REQUIRED            6 OUTER ITERATIONS 
       AND A TOTAL OF         11 INNER ITERATIONS.
    ------------------------------------------------

 NO OUTPUT CONTROL FOR STRESS PERIOD   35   TIME STEP    7
 
 SOLVING FOR HEAD 
                                                   Max.-Head-Change                         Max.-Flux-Residual
  Residual-Control   Outer-Iter.   Inner-Iter.     Column Row Layer    Maximum-Head-Change  Column Row Layer    Maximum-Flux-Residual          L2-NORM 
          0                 1           2             5    6     1      -0.2534676419E-01       5    6    1        -0.1425229988E+01      0.2591868770E+01
          0                 2           2             5    6     1       0.2487527798E-02       5    6    1         0.1425191508E+00      0.2534879827E+00
          0                 3           2             5    6     1      -0.2248401189E-02       5    6    1        -0.1277078393E+00      0.2987889041E+00
          0                 4           2             5    8     1       0.2227379080E-02       5    8    1         0.1260820520E+00      0.2969005811E+00
          0                 5           2             4    6     1       0.1806890179E-03       4    6    1         0.1047169682E-01      0.1215182413E-01
          0                 6           1             4    6     1       0.1765789850E-04       4    6    1         0.1017543147E-02      0.1026961830E-02

    ------------------------------------------------
       NWT REQUIRED            6 OUTER ITERATIONS 
       AND A TOTAL OF         11 INNER ITERATIONS.
    ------------------------------------------------

 NO OUTPUT CONTROL FOR STRESS PERIOD   35   TIME STEP    8
 
 SOLVING FOR HEAD 
                                                   Max.-Head-Change                         Max.-Flux-Residual
  Residual-Control   Outer-Iter.   Inner-Iter.     Column Row Layer    Maximum-Head-Change  Column Row Layer    Maximum-Flux-Residual          L2-NORM 
          0                 1           2             5    6     1      -0.2341084845E-01       5    6    1        -0.1316121886E+01      0.2456991634E+01
          0                 2           2             5    6     1       0.2297325663E-02       5    6    1         0.1316089473E+00      0.2406904360E+00
          0                 3           2             5    6     1      -0.2239475582E-02       5    6    1        -0.1271683705E+00      0.2988589597E+00
          0                 4           2             5    8     1       0.2231670388E-02       5    8    1         0.1263252690E+00      0.2974417438E+00
          0                 5           2             4    6     1       0.1819650837E-03       4    6    1         0.1054379780E-01      0.1217033822E-01
          0                 6           1             4    6     1       0.1683510676E-04       4    6    1         0.9716586703E-03      0.9748544617E-03

    ------------------------------------------------
       NWT REQUIRED            6 OUTER ITERATIONS 
       AND A TOTAL OF         11 INNER ITERATIONS.
    ------------------------------------------------

 NO OUTPUT CONTROL FOR STRESS PERIOD   35   TIME STEP    9
 
 SOLVING FOR HEAD 
                                                   Max.-Head-Change                         Max.-Flux-Residual
  Residual-Control   Outer-Iter.   Inner-Iter.     Column Row Layer    Maximum-Head-Change  Column Row Layer    Maximum-Flux-Residual          L2-NORM 
          0                 1           2             5    6     1      -0.2162651906E-01       5    6    1        -0.1215602578E+01      0.2332686164E+01
          0                 2           2             5    6     1       0.2122030383E-02       5    6    1         0.1215575286E+00      0.2287624524E+00
          0                 3           2             5    6     1      -0.2231152709E-02       5    6    1        -0.1266630620E+00      0.2988882761E+00
          0                 4           2             5    8     1       0.2235521488E-02       5    8    1         0.1265404746E+00      0.2979188460E+00
          0                 5           2             4    6     1       0.1807049090E-03       4    6    1         0.1047383521E-01      0.1219771835E-01
          0                 6           1             4    6     1       0.1827435405E-04       4    6    1         0.1052076126E-02      0.1072107487E-02

    ------------------------------------------------
       NWT REQUIRED            6 OUTER ITERATIONS 
       AND A TOTAL OF         11 INNER ITERATIONS.
    ------------------------------------------------

 NO OUTPUT CONTROL FOR STRESS PERIOD   35   TIME STEP   10
 
 SOLVING FOR HEAD 
                                                   Max.-Head-Change                         Max.-Flux-Residual
  Residual-Control   Outer-Iter.   Inner-Iter.     Column Row Layer    Maximum-Head-Change  Column Row Layer    Maximum-Flux-Residual          L2-NORM 
          0                 1           2             5    6     1      -0.1998190225E-01       5    6    1        -0.1122966959E+01      0.2217991376E+01
          0                 2           2             5    6     1       0.1960506832E-02       5    6    1         0.1122943989E+00      0.2179353550E+00
          0                 3           2             4    7     1      -0.2225223351E-02       5    6    1        -0.1261788877E+00      0.2988747610E+00
          0                 4           2             5    8     1       0.2238667472E-02       5    8    1         0.1267188100E+00      0.2983120714E+00
          0                 5           2             4    6     1       0.1825053548E-03       4    6    1         0.1057511567E-01      0.1220677587E-01
          0                 6           1             4    6     1       0.1688504886E-04       4    6    1         0.9745423990E-03      0.9777479950E-03

    ------------------------------------------------
       NWT REQUIRED            6 OUTER ITERATIONS 
       AND A TOTAL OF         11 INNER ITERATIONS.
    ------------------------------------------------

 NO OUTPUT CONTROL FOR STRESS PERIOD   35   TIME STEP   11
 
 SOLVING FOR HEAD 
                                                   Max.-Head-Change                         Max.-Flux-Residual
  Residual-Control   Outer-Iter.   Inner-Iter.     Column Row Layer    Maximum-Head-Change  Column Row Layer    Maximum-Flux-Residual          L2-NORM 
          0                 1           2             5    6     1      -0.1846500469E-01       5    6    1        -0.1037565442E+01      0.2112791480E+01
          0                 2           2             5    6     1       0.1810997967E-02       5    6    1         0.1037248819E+00      0.2078487712E+00
          0                 3           2             4    7     1      -0.2223186106E-02       5    6    1        -0.1256640228E+00      0.2986868731E+00
          0                 4           2             4    7     1       0.2171591420E-02       5    6    1         0.1235243200E+00      0.2971300813E+00
          0                 5           2             4    6     1       0.1826772314E-03       4    6    1         0.1058507922E-01      0.1113470034E-01
          0                 6           1             4    6     1       0.1690075362E-04       4    6    1         0.9754496680E-03      0.9764591307E-03

    ------------------------------------------------
       NWT REQUIRED            6 OUTER ITERATIONS 
       AND A TOTAL OF         11 INNER ITERATIONS.
    ------------------------------------------------

 NO OUTPUT CONTROL FOR STRESS PERIOD   35   TIME STEP   12
 
 SOLVING FOR HEAD 
                                                   Max.-Head-Change                         Max.-Flux-Residual
  Residual-Control   Outer-Iter.   Inner-Iter.     Column Row Layer    Maximum-Head-Change  Column Row Layer    Maximum-Flux-Residual          L2-NORM 
          0                 1           2             4    6     1       0.1076313026E+00       4    6    1         0.5886988930E+01      0.6211390716E+01
          0                 2           2             4    6     1       0.4297749071E-01       4    6    1         0.2345174402E+01      0.2353510828E+01
          0                 3           2             4    6     1       0.1492990514E-01       4    6    1         0.8187109558E+00      0.8629739559E+00
          0                 4           2             4    6     1       0.8197261797E-02       4    6    1         0.4437235133E+00      0.5228445966E+00
          0                 5           2             4    6     1       0.3273424205E-02       4    6    1         0.1787322232E+00      0.1787585936E+00
          0                 6           2             4    6     1       0.1307181253E-02       4    6    1         0.7135400024E-01      0.7135501559E-01
          0                 7           2             4    6     1       0.5219986229E-03       4    6    1         0.2849414556E-01      0.2849449070E-01
          0                 8           2             4    6     1       0.2084504868E-03       4    6    1         0.1137860742E-01      0.1137874584E-01
          0                 9           1             4    6     1       0.8324084395E-04       4    6    1         0.4543836490E-02      0.4543891778E-02

    ------------------------------------------------
       NWT REQUIRED            9 OUTER ITERATIONS 
       AND A TOTAL OF         17 INNER ITERATIONS.
    ------------------------------------------------

 NO OUTPUT CONTROL FOR STRESS PERIOD   35   TIME STEP   13
 
 SOLVING FOR HEAD 
                                                   Max.-Head-Change                         Max.-Flux-Residual
  Residual-Control   Outer-Iter.   Inner-Iter.     Column Row Layer    Maximum-Head-Change  Column Row Layer    Maximum-Flux-Residual          L2-NORM 
          0                 1           2             4    6     1       0.1799077650E+00       4    6    1         0.9824843696E+01      0.9998202220E+01
          0                 2           2             4    6     1       0.6626197232E-01       4    6    1         0.3617238346E+01      0.3621975952E+01
          0                 3           2             4    8     1      -0.2178425347E-02       5    6    1        -0.1221441635E+00      0.2720164544E+00
          0                 4           2             4    7     1       0.2177318029E-02       4    8    1         0.1236923882E+00      0.3007252350E+00
          0                 5           2             4    6     1       0.1798270501E-03       4    6    1         0.1042190352E-01      0.1098892020E-01
          0                 6           1             4    6     1       0.1527312096E-04       4    6    1         0.8816035192E-03      0.8827381249E-03

    ------------------------------------------------
       NWT REQUIRED            6 OUTER ITERATIONS 
       AND A TOTAL OF         11 INNER ITERATIONS.
    ------------------------------------------------

 NO OUTPUT CONTROL FOR STRESS PERIOD   35   TIME STEP   14
 
 SOLVING FOR HEAD 
                                                   Max.-Head-Change                         Max.-Flux-Residual
  Residual-Control   Outer-Iter.   Inner-Iter.     Column Row Layer    Maximum-Head-Change  Column Row Layer    Maximum-Flux-Residual          L2-NORM 
          0                 1           2             4    5     1       0.1813611716E-01       4    5    1         0.9909932995E+00      0.1993717527E+01
          0                 2           2             4    5     1      -0.1764321957E-02       4    5    1        -0.9910090601E-01      0.1983129871E+00
          0                 3           2             4    6     1      -0.2226098021E-02       4    6    1        -0.1248630995E+00      0.2990963307E+00
          0                 4           2             4    7     1       0.2179827105E-02       4    6    1         0.1238824868E+00      0.3031168955E+00
          0                 5           1             4    7     1      -0.2758479834E-04       4    6    1        -0.1610423838E-02      0.3942925094E-02

    ------------------------------------------------
       NWT REQUIRED            5 OUTER ITERATIONS 
       AND A TOTAL OF          9 INNER ITERATIONS.
    ------------------------------------------------

 NO OUTPUT CONTROL FOR STRESS PERIOD   35   TIME STEP   15
 
 SOLVING FOR HEAD 
                                                   Max.-Head-Change                         Max.-Flux-Residual
  Residual-Control   Outer-Iter.   Inner-Iter.     Column Row Layer    Maximum-Head-Change  Column Row Layer    Maximum-Flux-Residual          L2-NORM 
          0                 1           2             4    5     1       0.1725326276E-01       4    5    1         0.9423375802E+00      0.1913607374E+01
          0                 2           2             4    5     1      -0.1678292867E-02       4    5    1        -0.9423518930E-01      0.1913573728E+00
          0                 3           2             4    6     1      -0.2224601527E-02       4    6    1        -0.1247643677E+00      0.2993722418E+00
          0                 4           2             4    7     1       0.2182739284E-02       4    6    1         0.1240330184E+00      0.3035073681E+00
          0                 5           1             4    7     1      -0.2691420338E-04       4    6    1        -0.1571117241E-02      0.3846829894E-02

    ------------------------------------------------
       NWT REQUIRED            5 OUTER ITERATIONS 
       AND A TOTAL OF          9 INNER ITERATIONS.
    ------------------------------------------------

 NO OUTPUT CONTROL FOR STRESS PERIOD   35   TIME STEP   16
 
 SOLVING FOR HEAD 
                                                   Max.-Head-Change                         Max.-Flux-Residual
  Residual-Control   Outer-Iter.   Inner-Iter.     Column Row Layer    Maximum-Head-Change  Column Row Layer    Maximum-Flux-Residual          L2-NORM 
          0                 1           2             4    5     1       0.1642086815E-01       4    5    1         0.8964664010E+00      0.1838088192E+01
          0                 2           2             4    5     1      -0.1597321658E-02       4    5    1        -0.8964794047E-01      0.1838054978E+00
          0                 3           2             4    6     1      -0.2220519659E-02       4    6    1        -0.1245225070E+00      0.2992888335E+00
          0                 4           2             4    7     1       0.2184327004E-02       4    6    1         0.1241081226E+00      0.3037127031E+00
          0                 5           1             4    7     1      -0.2744355973E-04       4    6    1        -0.1601795122E-02      0.3922316383E-02

    ------------------------------------------------
       NWT REQUIRED            5 OUTER ITERATIONS 
       AND A TOTAL OF          9 INNER ITERATIONS.
    ------------------------------------------------

 NO OUTPUT CONTROL FOR STRESS PERIOD   35   TIME STEP   17
 
 SOLVING FOR HEAD 
                                                   Max.-Head-Change                         Max.-Flux-Residual
  Residual-Control   Outer-Iter.   Inner-Iter.     Column Row Layer    Maximum-Head-Change  Column Row Layer    Maximum-Flux-Residual          L2-NORM 
          0                 1           2             4    5     1       0.1563586756E-01       4    5    1         0.8532181282E+00      0.1767027895E+01
          0                 2           2             4    5     1      -0.1520960779E-02       4    5    1        -0.8532299500E-01      0.1766994870E+00
          0                 3           2             4    6     1      -0.2216579680E-02       4    6    1        -0.1242895152E+00      0.2991928144E+00
          0                 4           2             4    7     1       0.2185713722E-02       4    6    1         0.1241729947E+00      0.3038915100E+00
          0                 5           1             4    7     1      -0.2695036849E-04       4    6    1        -0.1572848399E-02      0.3851633829E-02

    ------------------------------------------------
       NWT REQUIRED            5 OUTER ITERATIONS 
       AND A TOTAL OF          9 INNER ITERATIONS.
    ------------------------------------------------

 NO OUTPUT CONTROL FOR STRESS PERIOD   35   TIME STEP   18
 
 SOLVING FOR HEAD 
                                                   Max.-Head-Change                         Max.-Flux-Residual
  Residual-Control   Outer-Iter.   Inner-Iter.     Column Row Layer    Maximum-Head-Change  Column Row Layer    Maximum-Flux-Residual          L2-NORM 
          0                 1           2             4    5     1       0.1489558913E-01       4    5    1         0.8124428356E+00      0.1700121929E+01
          0                 2           2             4    5     1      -0.1448961238E-02       4    5    1        -0.8124535902E-01      0.1699604076E+00
          0                 3           2             4    6     1      -0.2211233044E-02       4    6    1        -0.1239786214E+00      0.2988738389E+00
          0                 4           2             4    7     1       0.2186114909E-02       4    6    1         0.1241830109E+00      0.3039345989E+00
          0                 5           1             4    7     1      -0.2695582653E-04       4    6    1        -0.1572999551E-02      0.3852327041E-02

    ------------------------------------------------
       NWT REQUIRED            5 OUTER ITERATIONS 
       AND A TOTAL OF          9 INNER ITERATIONS.
    ------------------------------------------------

 NO OUTPUT CONTROL FOR STRESS PERIOD   35   TIME STEP   19
 
 SOLVING FOR HEAD 
                                                   Max.-Head-Change                         Max.-Flux-Residual
  Residual-Control   Outer-Iter.   Inner-Iter.     Column Row Layer    Maximum-Head-Change  Column Row Layer    Maximum-Flux-Residual          L2-NORM 
          0                 1           2             4    5     1       0.1419695877E-01       4    5    1         0.7739710993E+00      0.1637064202E+01
          0                 2           2             4    5     1      -0.1381038643E-02       4    5    1        -0.7739808887E-01      0.1634940878E+00
          0                 3           2             4    6     1      -0.2202289982E-02       4    6    1        -0.1234671719E+00      0.2980336254E+00
          0                 4           2             4    7     1       0.2184339956E-02       4    6    1         0.1240705349E+00      0.3036763245E+00
          0                 5           1             4    7     1      -0.2693342938E-04       4    6    1        -0.1571539939E-02      0.3848928731E-02

    ------------------------------------------------
       NWT REQUIRED            5 OUTER ITERATIONS 
       AND A TOTAL OF          9 INNER ITERATIONS.
    ------------------------------------------------

 NO OUTPUT CONTROL FOR STRESS PERIOD   35   TIME STEP   20
 
 SOLVING FOR HEAD 
                                                   Max.-Head-Change                         Max.-Flux-Residual
  Residual-Control   Outer-Iter.   Inner-Iter.     Column Row Layer    Maximum-Head-Change  Column Row Layer    Maximum-Flux-Residual          L2-NORM 
          0                 1           2             4    5     1       0.1353765304E-01       4    5    1         0.7376735962E+00      0.1577606097E+01
          0                 2           2             4    5     1      -0.1316857482E-02       4    5    1        -0.7376825133E-01      0.1577574522E+00
          0                 3           2             4    6     1      -0.2205976703E-02       4    6    1        -0.1236635415E+00      0.2988995820E+00
          0                 4           2             4    7     1       0.2189285280E-02       4    6    1         0.1243403376E+00      0.3043533070E+00
          0                 5           1             4    7     1      -0.2699474854E-04       4    6    1        -0.1574972163E-02      0.3857588421E-02

    ------------------------------------------------
       NWT REQUIRED            5 OUTER ITERATIONS 
       AND A TOTAL OF          9 INNER ITERATIONS.
    ------------------------------------------------

 NO OUTPUT CONTROL FOR STRESS PERIOD   35   TIME STEP   21
 
 SOLVING FOR HEAD 
                                                   Max.-Head-Change                         Max.-Flux-Residual
  Residual-Control   Outer-Iter.   Inner-Iter.     Column Row Layer    Maximum-Head-Change  Column Row Layer    Maximum-Flux-Residual          L2-NORM 
          0                 1           2             4    5     1       0.1291496327E-01       4    5    1         0.7034002085E+00      0.1521504504E+01
          0                 2           2             4    5     1      -0.1256285594E-02       4    5    1        -0.7034083355E-01      0.1521471258E+00
          0                 3           2             4    6     1      -0.2202759195E-02       4    6    1        -0.1234740510E+00      0.2987944579E+00
          0                 4           2             4    7     1       0.2190251309E-02       4    6    1         0.1243851737E+00      0.3044781138E+00
          0                 5           1             4    7     1      -0.2889367938E-04       4    6    1        -0.1685595374E-02      0.4129113345E-02

    ------------------------------------------------
       NWT REQUIRED            5 OUTER ITERATIONS 
       AND A TOTAL OF          9 INNER ITERATIONS.
    ------------------------------------------------

 NO OUTPUT CONTROL FOR STRESS PERIOD   35   TIME STEP   22
 
 SOLVING FOR HEAD 
                                                   Max.-Head-Change                         Max.-Flux-Residual
  Residual-Control   Outer-Iter.   Inner-Iter.     Column Row Layer    Maximum-Head-Change  Column Row Layer    Maximum-Flux-Residual          L2-NORM 
          0                 1           2             4    5     1       0.1232741363E-01       4    5    1         0.6710682704E+00      0.1468527733E+01
          0                 2           2             4    5     1      -0.1199161165E-02       4    5    1        -0.6710756824E-01      0.1467238455E+00
          0                 3           2             4    6     1      -0.2195275088E-02       4    6    1        -0.1230463261E+00      0.2980818121E+00
          0                 4           2             4    7     1       0.2188667025E-02       4    6    1         0.1242860686E+00      0.3042493438E+00
          0                 5           1             4    7     1      -0.2698729553E-04       4    6    1        -0.1574285686E-02      0.3856306961E-02

    ------------------------------------------------
       NWT REQUIRED            5 OUTER ITERATIONS 
       AND A TOTAL OF          9 INNER ITERATIONS.
    ------------------------------------------------

 NO OUTPUT CONTROL FOR STRESS PERIOD   35   TIME STEP   23
 
 SOLVING FOR HEAD 
                                                   Max.-Head-Change                         Max.-Flux-Residual
  Residual-Control   Outer-Iter.   Inner-Iter.     Column Row Layer    Maximum-Head-Change  Column Row Layer    Maximum-Flux-Residual          L2-NORM 
          0                 1           2             4    5     1       0.1177208251E-01       4    5    1         0.6405168896E+00      0.1418481808E+01
          0                 2           2             4    5     1      -0.1145112471E-02       4    5    1        -0.6405236534E-01      0.1418450663E+00
          0                 3           2             4    6     1      -0.2196665541E-02       4    6    1        -0.1231160320E+00      0.2985652507E+00
          0                 4           2             4    7     1       0.2191814233E-02       4    6    1         0.1244561925E+00      0.3046790986E+00
          0                 5           1             4    7     1      -0.2702559093E-04       4    6    1        -0.1576406455E-02      0.3861675710E-02

    ------------------------------------------------
       NWT REQUIRED            5 OUTER ITERATIONS 
       AND A TOTAL OF          9 INNER ITERATIONS.
    ------------------------------------------------

 NO OUTPUT CONTROL FOR STRESS PERIOD   35   TIME STEP   24
 
 SOLVING FOR HEAD 
                                                   Max.-Head-Change                         Max.-Flux-Residual
  Residual-Control   Outer-Iter.   Inner-Iter.     Column Row Layer    Maximum-Head-Change  Column Row Layer    Maximum-Flux-Residual          L2-NORM 
          0                 1           2             4    5     1       0.1124778310E-01       4    5    1         0.6116789607E+00      0.1371163906E+01
          0                 2           2             4    5     1      -0.1094111579E-02       4    5    1        -0.6116851371E-01      0.1371133133E+00
          0                 3           2             4    7     1      -0.2197056477E-02       4    6    1        -0.1229536772E+00      0.2984595032E+00
          0                 4           2             4    7     1       0.2192557881E-02       4    6    1         0.1244905900E+00      0.3047755063E+00
          0                 5           1             4    7     1      -0.2703527148E-04       4    6    1        -0.1576868003E-02      0.3862966817E-02

    ------------------------------------------------
       NWT REQUIRED            5 OUTER ITERATIONS 
       AND A TOTAL OF          9 INNER ITERATIONS.
    ------------------------------------------------

 NO OUTPUT CONTROL FOR STRESS PERIOD   35   TIME STEP   25
 
 SOLVING FOR HEAD 
                                                   Max.-Head-Change                         Max.-Flux-Residual
  Residual-Control   Outer-Iter.   Inner-Iter.     Column Row Layer    Maximum-Head-Change  Column Row Layer    Maximum-Flux-Residual          L2-NORM 
          0                 1           2             3    7     1       0.1075760696E-01       4    5    1         0.5844351667E+00      0.1326415626E+01
          0                 2           2             3    7     1      -0.1046421740E-02       4    5    1        -0.5844408102E-01      0.1326385155E+00
          0                 3           2             4    7     1      -0.2197435355E-02       4    6    1        -0.1227994628E+00      0.2983543524E+00
          0                 4           2             4    7     1       0.2193237720E-02       4    6    1         0.1245219851E+00      0.3048637546E+00
          0                 5           1             4    7     1      -0.2704348396E-04       4    6    1        -0.1577251956E-02      0.3864093246E-02

    ------------------------------------------------
       NWT REQUIRED            5 OUTER ITERATIONS 
       AND A TOTAL OF          9 INNER ITERATIONS.
    ------------------------------------------------

 NO OUTPUT CONTROL FOR STRESS PERIOD   35   TIME STEP   26
 
 SOLVING FOR HEAD 
                                                   Max.-Head-Change                         Max.-Flux-Residual
  Residual-Control   Outer-Iter.   Inner-Iter.     Column Row Layer    Maximum-Head-Change  Column Row Layer    Maximum-Flux-Residual          L2-NORM 
          0                 1           2             3    7     1       0.1054898881E-01       4    5    1         0.5586879716E+00      0.1284046713E+01
          0                 2           2             3    7     1      -0.1026136377E-02       4    5    1        -0.5586931313E-01      0.1283564774E+00
          0                 3           2             4    7     1      -0.2196092436E-02       4    6    1        -0.1225641753E+00      0.2980327805E+00
          0                 4           2             4    7     1       0.2193013448E-02       4    6    1         0.1245026438E+00      0.3048269729E+00
          0                 5           1             4    7     1      -0.2704088925E-04       4    6    1        -0.1577013369E-02      0.3863662136E-02

    ------------------------------------------------
       NWT REQUIRED            5 OUTER ITERATIONS 
       AND A TOTAL OF          9 INNER ITERATIONS.
    ------------------------------------------------

 NO OUTPUT CONTROL FOR STRESS PERIOD   35   TIME STEP   27
 
 SOLVING FOR HEAD 
                                                   Max.-Head-Change                         Max.-Flux-Residual
  Residual-Control   Outer-Iter.   Inner-Iter.     Column Row Layer    Maximum-Head-Change  Column Row Layer    Maximum-Flux-Residual          L2-NORM 
          0                 1           2             3    7     1       0.1034412830E-01       4    5    1         0.5343462998E+00      0.1243926014E+01
          0                 2           2             3    7     1      -0.1006201533E-02       4    5    1        -0.5343510202E-01      0.1243895583E+00
          0                 3           2             4    7     1      -0.2197857656E-02       4    6    1        -0.1225136921E+00      0.2981465787E+00
          0                 4           2             4    7     1       0.2194436843E-02       4    6    1         0.1245773424E+00      0.3050198222E+00
          0                 5           1             4    7     1      -0.2705843996E-04       4    7    1        -0.1578035446E-02      0.3866103872E-02

    ------------------------------------------------
       NWT REQUIRED            5 OUTER ITERATIONS 
       AND A TOTAL OF          9 INNER ITERATIONS.
    ------------------------------------------------

 NO OUTPUT CONTROL FOR STRESS PERIOD   35   TIME STEP   28
 
 SOLVING FOR HEAD 
                                                   Max.-Head-Change                         Max.-Flux-Residual
  Residual-Control   Outer-Iter.   Inner-Iter.     Column Row Layer    Maximum-Head-Change  Column Row Layer    Maximum-Flux-Residual          L2-NORM 
          0                 1           2             3    7     1       0.1014304851E-01       4    5    1         0.5113542014E+00      0.1205914894E+01
          0                 2           2             3    7     1      -0.9866431867E-03       4    5    1        -0.5113585226E-01      0.1205831934E+00
          0                 3           2             4    7     1      -0.2197661448E-02       4    6    1        -0.1223666986E+00      0.2980085620E+00
          0                 4           2             4    7     1       0.2194822771E-02       4    6    1         0.1245936473E+00      0.3050689916E+00
          0                 5           1             4    7     1      -0.2706302898E-04       4    7    1        -0.1578303728E-02      0.3866725019E-02

    ------------------------------------------------
       NWT REQUIRED            5 OUTER ITERATIONS 
       AND A TOTAL OF          9 INNER ITERATIONS.
    ------------------------------------------------

 NO OUTPUT CONTROL FOR STRESS PERIOD   35   TIME STEP   29
 
 SOLVING FOR HEAD 
                                                   Max.-Head-Change                         Max.-Flux-Residual
  Residual-Control   Outer-Iter.   Inner-Iter.     Column Row Layer    Maximum-Head-Change  Column Row Layer    Maximum-Flux-Residual          L2-NORM 
          0                 1           2             3    7     1       0.9945768996E-02       4    5    1         0.4896008402E+00      0.1169869646E+01
          0                 2           2             3    7     1      -0.9674520374E-03       4    5    1        -0.4896047982E-01      0.1169839814E+00
          0                 3           2             4    7     1      -0.2197905584E-02       4    6    1        -0.1222552712E+00      0.2979430977E+00
          0                 4           2             4    7     1       0.2195443141E-02       4    6    1         0.1246237153E+00      0.3051512555E+00
          0                 5           1             4    7     1      -0.2707067780E-04       4    7    1        -0.1578750329E-02      0.3867763553E-02

    ------------------------------------------------
       NWT REQUIRED            5 OUTER ITERATIONS 
       AND A TOTAL OF          9 INNER ITERATIONS.
    ------------------------------------------------

 NO OUTPUT CONTROL FOR STRESS PERIOD   35   TIME STEP   30



 STREAM LISTING     PERIOD     35   STEP       30

 LAYER ROW COL. STREAM  RCH.  FLOW INTO     FLOW TO   FLOW OUT OF   OVRLND.     DIRECT     STREAM       STREAM     STREAM     STREAM   STREAMBED  STREAMBED
                SEG.NO.  NO.  STRM. RCH.    AQUIFER    STRM. RCH.    RUNOFF     PRECIP       ET          HEAD       DEPTH      WIDTH   CONDCTNC.   GRADIENT

   1    1    1     1     1    2.6249E+01  2.5084E-01   2.5998E+01  0.000E+00  0.000E+00  0.000E+00  1.09424E+03  1.197E+00  1.328E+01  5.977E-02  1.399E+00
   1    2    2     1     2    2.5998E+01  3.8795E-01   2.5610E+01  0.000E+00  0.000E+00  0.000E+00  1.08925E+03  1.192E+00  1.322E+01  9.254E-02  1.397E+00
   1    3    3     1     3    2.5610E+01  3.3035E-01   2.5280E+01  0.000E+00  0.000E+00  0.000E+00  1.08361E+03  1.187E+00  1.315E+01  7.890E-02  1.396E+00
   1    3    4     1     4    2.5280E+01  3.0378E-01   2.4976E+01  0.000E+00  0.000E+00  0.000E+00  1.07859E+03  1.182E+00  1.309E+01  7.264E-02  1.394E+00
   1    4    5     2     1    2.2976E+01  3.2316E-01   2.2653E+01  0.000E+00  0.000E+00  0.000E+00  1.07308E+03  1.143E+00  1.200E+01  7.800E-02  1.381E+00
   1    5    6     2     2    2.2653E+01  2.4807E-01   2.2405E+01  0.000E+00  0.000E+00  0.000E+00  1.06764E+03  1.134E+00  1.200E+01  6.000E-02  1.378E+00
   1    6    6     2     3    2.2405E+01  2.4762E-01   2.2157E+01  0.000E+00  0.000E+00  0.000E+00  1.06292E+03  1.127E+00  1.200E+01  6.000E-02  1.376E+00
   1    7    6     2     4    2.2157E+01  2.4717E-01   2.1910E+01  0.000E+00  0.000E+00  0.000E+00  1.05819E+03  1.119E+00  1.200E+01  6.000E-02  1.373E+00
   1    8    6     2     5    2.1910E+01  2.4671E-01   2.1664E+01  0.000E+00  0.000E+00  0.000E+00  1.05347E+03  1.112E+00  1.200E+01  6.000E-02  1.371E+00
   1    3    5     3     1    2.0000E+00  2.8252E-01   1.7175E+00  0.000E+00  0.000E+00  0.000E+00  1.07555E+03  1.909E+00  9.636E+00  7.227E-02  1.955E+00
   1    3    6     3     2    1.7175E+00  2.4905E-01   1.4684E+00  0.000E+00  0.000E+00  0.000E+00  1.07264E+03  1.727E+00  8.909E+00  6.682E-02  1.864E+00
   1    3    7     3     3    1.4684E+00  1.9718E-01   1.2712E+00  0.000E+00  0.000E+00  0.000E+00  1.06987E+03  1.555E+00  8.218E+00  5.547E-02  1.777E+00
   1    4    8     3     4    1.2712E+00  2.2567E-01   1.0456E+00  0.000E+00  0.000E+00  0.000E+00  1.06682E+03  1.364E+00  7.455E+00  6.709E-02  1.682E+00
   1    5    8     3     5    1.0456E+00  1.5790E-01   8.8768E-01  0.000E+00  0.000E+00  0.000E+00  1.06362E+03  1.164E+00  6.655E+00  4.991E-02  1.582E+00
   1    6    8     3     6    8.8768E-01  5.5980E-02   8.3170E-01  0.000E+00  0.000E+00  0.000E+00  1.06158E+03  1.036E+00  6.145E+00  1.844E-02  1.518E+00
   1    5   10     4     1    1.0000E+01  9.0919E-02   9.9091E+00  0.000E+00  0.000E+00  0.000E+00  1.07836E+03  6.368E-01  1.000E+01  2.500E-02  1.212E+00
   1    5    9     4     2    9.9091E+00  1.8158E-01   9.7275E+00  0.000E+00  0.000E+00  0.000E+00  1.07154E+03  6.315E-01  1.000E+01  5.000E-02  1.211E+00
   1    6    8     4     3    9.7275E+00  1.2689E-01   9.6006E+00  0.000E+00  0.000E+00  0.000E+00  1.06381E+03  6.256E-01  1.000E+01  3.500E-02  1.209E+00
   1    6    8     5     1    1.0432E+01  2.2686E-01   1.0205E+01  0.000E+00  0.000E+00  0.000E+00  1.05868E+03  6.790E-01  1.542E+01  6.166E-02  1.226E+00
   1    7    7     5     2    1.0205E+01  2.7894E-01   9.9265E+00  0.000E+00  0.000E+00  0.000E+00  1.05417E+03  6.732E-01  1.519E+01  7.594E-02  1.224E+00
   1    8    7     5     3    9.9265E+00  1.9221E-01   9.7343E+00  0.000E+00  0.000E+00  0.000E+00  1.04992E+03  6.676E-01  1.497E+01  5.241E-02  1.223E+00
   1    8    6     5     4    9.7343E+00  1.3577E-01   9.5985E+00  0.000E+00  0.000E+00  0.000E+00  1.04691E+03  6.637E-01  1.482E+01  3.706E-02  1.221E+00
   1    9    6     6     1    3.0544E+01  2.6241E-01   3.0282E+01  0.000E+00  0.000E+00  0.000E+00  1.04410E+03  1.373E+00  1.200E+01  6.000E-02  1.458E+00
   1   10    7     6     2    3.0282E+01  2.6198E-01   3.0020E+01  0.000E+00  0.000E+00  0.000E+00  1.03955E+03  1.366E+00  1.200E+01  6.000E-02  1.455E+00
   1   11    7     6     3    3.0020E+01  2.6155E-01   2.9758E+01  0.000E+00  0.000E+00  0.000E+00  1.03500E+03  1.359E+00  1.200E+01  6.000E-02  1.453E+00
   1   12    7     6     4    2.9758E+01  2.6112E-01   2.9497E+01  0.000E+00  0.000E+00  0.000E+00  1.03044E+03  1.352E+00  1.200E+01  6.000E-02  1.451E+00
   1   13    7     6     5    2.9497E+01  7.1151E-03   2.9490E+01  0.000E+00  0.000E+00  0.000E+00  1.02726E+03  1.348E+00  1.200E+01  2.400E-02  9.882E-02
   1   14    9     7     1    1.5000E+02  1.3451E+00   1.4865E+02  0.000E+00  0.000E+00  0.000E+00  1.03987E+03  2.288E+00  5.529E+01  5.593E-01  8.016E-01
   1   13    8     7     2    1.4865E+02  1.8691E+00   1.4679E+02  0.000E+00  0.000E+00  0.000E+00  1.03478E+03  2.279E+00  5.526E+01  6.148E-01  1.013E+00
   1   13    7     7     3    1.4679E+02  1.5237E+00   1.4526E+02  0.000E+00  0.000E+00  0.000E+00  1.02969E+03  2.270E+00  5.522E+01  5.584E-01  9.095E-01
   1   13    6     8     1    1.7475E+02  9.9054E-01   1.7376E+02  0.000E+00  0.000E+00  0.000E+00  1.02485E+03  2.980E+00  4.321E+01  4.403E-01  7.499E-01
   1   13    5     8     2    1.7376E+02  2.2818E-01   1.7353E+02  0.000E+00  0.000E+00  0.000E+00  1.01860E+03  2.976E+00  4.315E+01  4.397E-01  1.730E-01
   1   13    4     8     3    1.7353E+02 -2.2842E+00   1.7582E+02  0.000E+00  0.000E+00  0.000E+00  1.01236E+03  2.982E+00  4.324E+01  4.407E+00 -1.728E-01
   1   13    3     8     4    1.7582E+02 -3.5678E+00   1.7939E+02  0.000E+00  0.000E+00  0.000E+00  1.00613E+03  3.001E+00  4.351E+01  4.434E+00 -2.682E-01
   1   13    2     8     5    1.7939E+02 -2.5437E+00   1.8193E+02  0.000E+00  0.000E+00  0.000E+00  9.99895E+02  3.020E+00  4.379E+01  4.463E+00 -1.900E-01
   1   13    1     8     6    1.8193E+02 -1.9597E+00   1.8389E+02  0.000E+00  0.000E+00  0.000E+00  9.94909E+02  3.034E+00  4.400E+01  2.690E+00 -2.428E-01
   1    8    6     9     1    7.1774E-01  0.0000E+00   7.1774E-01  0.000E+00  0.000E+00  0.000E+00  1.07922E+03  4.665E-01  4.000E+00  0.000E+00  1.155E+00
   1    8    5     9     2    7.1774E-01  0.0000E+00   7.1774E-01  0.000E+00  0.000E+00  0.000E+00  1.07872E+03  4.665E-01  4.000E+00  0.000E+00  1.155E+00





UNSATURATED ZONE PACKAGE VOLUMETRIC BUDGET FOR  TIME STEP    30 STRESS PERIOD   35
  ------------------------------------------------------------------------------



     CUMULATIVE VOLUMES      L**3       RATES FOR THIS TIME STEP      L**3/T
     ------------------                 ------------------------

           IN:                                      IN:
           ---                                      ---
        INFILTRATION =  1506189424.5491          INFILTRATION =           1.5653

          OUT:                                     OUT:
          ----                                     ----
              UZF ET =  1279536853.5941                UZF ET =           1.5675
        UZF RECHARGE =    54028827.0841          UZF RECHARGE =       0.0000E+00

            IN - OUT =   172623743.8709              IN - OUT =      -2.2449E-03

          STORAGE:                                 STORAGE:
          --------                                 --------
      STORAGE CHANGE =   172778856.2686        STORAGE CHANGE =      -2.2449E-03

 PERCENT DISCREPANCY IS DIFFERENCE BETWEEN IN-OUT MINUS CHANGE IN STORAGE
 DIVIDED BY THE AVERAGE OF IN AND OUT TIMES 100

 PERCENT DISCREPANCY =          -0.00     PERCENT DISCREPANCY =           0.00






1
  VOLUMETRIC BUDGET FOR AGRICULTURAL FIELDS AT  END OF TIME STEP   30, STRESS PERIOD  35
  ------------------------------------------------------------------------------

     CUMULATIVE VOLUMES      L**3       RATES FOR THIS TIME STEP      L**3/T
     ------------------                 ------------------------

           IN:                                      IN:
           ---                                      ---
           AG WELLS      =   463900064.0000             AG WELLS      =           0.0000
      DIVERSION SEGMENTS =   966468928.0000        DIVERSION SEGMENTS =           0.7177
           GW IRRIGATION =           0.0000             GW IRRIGATION =           0.0000
           SW IRRIGATION =           0.0000             SW IRRIGATION =           0.0000
        SYSTEM LOSSES GW =           0.0000          SYSTEM LOSSES GW =           0.0000
        SYSTEM LOSSES SW =           0.0000          SYSTEM LOSSES SW =           0.0000

                TOTAL IN =  1430369024.0000                  TOTAL IN =           0.7177

          OUT:                                     OUT:
          ----                                     ----
           AG WELLS      =           0.0000             AG WELLS      =           0.0000
      DIVERSION SEGMENTS =           0.0000        DIVERSION SEGMENTS =           0.0000
           GW IRRIGATION =   463900064.0000             GW IRRIGATION =           0.0000
           SW IRRIGATION =   966488192.0000             SW IRRIGATION =           0.7178
        SYSTEM LOSSES GW =           0.0000          SYSTEM LOSSES GW =           0.0000
        SYSTEM LOSSES SW =           0.0000          SYSTEM LOSSES SW =           0.0000

               TOTAL OUT =  1430388224.0000                 TOTAL OUT =           0.7178

                IN - OUT =      -19200.0000                  IN - OUT =      -1.4305E-05

     PERCENT DISCREPANCY =          -0.00         PERCENT DISCREPANCY =          -0.00



1
  VOLUMETRIC BUDGET FOR ENTIRE MODEL AT END OF TIME STEP   30, STRESS PERIOD  35
  ------------------------------------------------------------------------------

     CUMULATIVE VOLUMES      L**3       RATES FOR THIS TIME STEP      L**3/T
     ------------------                 ------------------------

           IN:                                      IN:
           ---                                      ---
             STORAGE     =   761559872.0000               STORAGE     =           2.7700
       CONSTANT HEAD     =           0.0000         CONSTANT HEAD     =           0.0000
     HEAD DEP BOUNDS     =    25589316.0000       HEAD DEP BOUNDS     =           0.2864
      STREAM LEAKAGE     =  1075162368.0000        STREAM LEAKAGE     =          11.9978
        UZF RECHARGE     =    54028828.0000          UZF RECHARGE     =           0.0000
               GW ET     =           0.0000                 GW ET     =           0.0000
     SURFACE LEAKAGE     =           0.0000       SURFACE LEAKAGE     =           0.0000
           AG WELLS      =           0.0000             AG WELLS      =           0.0000

                TOTAL IN =  1916340352.0000                  TOTAL IN =          15.0541

          OUT:                                     OUT:
          ----                                     ----
             STORAGE     =   464285568.0000               STORAGE     =           4.4087
       CONSTANT HEAD     =           0.0000         CONSTANT HEAD     =           0.0000
     HEAD DEP BOUNDS     =    26018228.0000       HEAD DEP BOUNDS     =           0.2902
      STREAM LEAKAGE     =   959320384.0000        STREAM LEAKAGE     =          10.3554
        UZF RECHARGE     =           0.0000          UZF RECHARGE     =           0.0000
               GW ET     =     2818101.5000                 GW ET     =           0.0000
     SURFACE LEAKAGE     =           0.0000       SURFACE LEAKAGE     =           0.0000
           AG WELLS      =   463900064.0000             AG WELLS      =           0.0000

               TOTAL OUT =  1916342272.0000                 TOTAL OUT =          15.0543

                IN - OUT =       -1920.0000                  IN - OUT =      -1.2398E-04

     PERCENT DISCREPANCY =          -0.00         PERCENT DISCREPANCY =          -0.00






         TIME SUMMARY AT END OF TIME STEP   30 IN STRESS PERIOD   35
                    SECONDS     MINUTES      HOURS       DAYS        YEARS
                    -----------------------------------------------------------
   TIME STEP LENGTH  87667.      1461.1      24.352      1.0147     2.77799E-03
 STRESS PERIOD TIME 2.63000E+06  43833.      730.56      30.440     8.33397E-02
         TOTAL TIME 8.95061E+07 1.49177E+06  24863.      1036.0      2.8363    
1
1
                            STRESS PERIOD NO.   36, LENGTH =   2630000.    
                            -----------------------------------------------

                              NUMBER OF TIME STEPS =    30

                               MULTIPLIER FOR DELT =     1.000

                            INITIAL TIME STEP SIZE =   87666.66    

 REUSING NON-PARAMETER GHB CELLS FROM LAST STRESS PERIOD

      2 GHB CELLS

 REUSING STREAM SEGMENT DATA FROM LAST STRESS PERIOD



            AREAL INFILTRATION RATE
 READING ON UNIT   19 WITH FORMAT: (FREE)              

            1           2           3           4           5           6           7           8           9          10
 ........................................................................................................................
   1   1.0000E-10  2.0000E-10   0.000       0.000       0.000       0.000       0.000       0.000       0.000       0.000    
   2   2.0000E-10  1.0000E-10  2.0000E-10   0.000       0.000      8.0000E-10  8.0000E-10  5.0000E-10   0.000       0.000    
   3    0.000      5.0000E-10  1.0000E-10  1.0000E-10  8.0000E-10  8.0000E-10  5.0000E-10  5.0000E-10   0.000       0.000    
   4   8.0000E-10  5.0000E-10  1.0000E-10  1.0000E-10  1.0000E-10  1.0000E-10  1.0000E-10  1.0000E-10  2.0000E-10   0.000    
   5   8.0000E-10  5.0000E-10  1.0000E-10  1.0000E-10  1.0000E-10  1.0000E-10  1.0000E-10  1.0000E-10  1.0000E-10  1.0000E-10
   6   8.0000E-10  5.0000E-10  5.0000E-10  2.0000E-10  2.0000E-10  1.0000E-10  1.0000E-10  1.0000E-10  1.0000E-10  5.0000E-10
   7   8.0000E-10  5.0000E-10  5.0000E-10  2.0000E-10  2.0000E-10  1.0000E-10  1.0000E-10  2.0000E-10  2.0000E-10   0.000    
   8    0.000      5.0000E-10  5.0000E-10  2.0000E-10  2.0000E-10  1.0000E-10  1.0000E-10  2.0000E-10  5.0000E-10   0.000    
   9    0.000      5.0000E-10  5.0000E-10  2.0000E-10  2.0000E-10  1.0000E-10  1.0000E-10  2.0000E-10  5.0000E-10   0.000    
  10    0.000      5.0000E-10  5.0000E-10  2.0000E-10  2.0000E-10  1.0000E-10  1.0000E-10  2.0000E-10  5.0000E-10  8.0000E-10
  11    0.000      1.0000E-10  1.0000E-10  1.0000E-10  1.0000E-10  1.0000E-10  1.0000E-10  2.0000E-10  5.0000E-10   0.000    
  12   1.0000E-10  1.0000E-10  1.0000E-10  1.0000E-10  1.0000E-10  1.0000E-10  1.0000E-10  1.0000E-10  2.0000E-10   0.000    
  13   1.0000E-10  1.0000E-10  2.0000E-10  2.0000E-10  2.0000E-10  2.0000E-10  2.0000E-10  1.0000E-10  1.0000E-10   0.000    
  14    0.000      2.0000E-10  5.0000E-10  5.0000E-10  5.0000E-10  5.0000E-10  5.0000E-10  2.0000E-10  1.0000E-10   0.000    
  15    0.000       0.000      8.0000E-10  8.0000E-10  8.0000E-10  8.0000E-10   0.000       0.000       0.000       0.000    

                  ET RATE =  5.000000E-10

 USING ET EXTINCTION DEPTH FROM PREVIOUS STRESS PERIOD. CURRENT PERIOD IS:      36

 USING EXTINCTION WATER CONTENT FROM PREVIOUS STRESS PERIOD. CURRENT PERIOD IS:      36

 USING AIR ENTRY PRESSURE FROM PREVIOUS STRESS PERIOD. CURRENT PERIOD IS:      36

 USING ROOT PRESSURE HEAD FROM PREVIOUS STRESS PERIOD. CURRENT PERIOD IS:      36

 USING ROOT ACTIVITY FROM PREVIOUS STRESS PERIOD. CURRENT PERIOD IS:      36

 PROCESSING AG STRESS PERIOD DATA

 READING AG STRESS PERIOD DATA

 READING IRRIGATION SEGMENT

 READING IRRIGATION WELL

 READING SUPPLEMENTAL WELL

 END PROCESSING AG STRESS PERIOD DATA OPTIONS
 
 SOLVING FOR HEAD 
                                                   Max.-Head-Change                         Max.-Flux-Residual
  Residual-Control   Outer-Iter.   Inner-Iter.     Column Row Layer    Maximum-Head-Change  Column Row Layer    Maximum-Flux-Residual          L2-NORM 
          0                 1           2             3    7     1       0.9752293659E-02       4    5    1         0.4690263149E+00      0.1135668207E+01
          0                 2           2             3    7     1      -0.9486321667E-03       4    5    1        -0.4690299425E-01      0.1135638317E+00
          0                 3           1             3    7     1       0.6459834996E-04       4    5    1         0.3283207577E-02      0.7949180337E-02

    ------------------------------------------------
       NWT REQUIRED            3 OUTER ITERATIONS 
       AND A TOTAL OF          5 INNER ITERATIONS.
    ------------------------------------------------

 NO OUTPUT CONTROL FOR STRESS PERIOD   36   TIME STEP    1
 
 SOLVING FOR HEAD 
                                                   Max.-Head-Change                         Max.-Flux-Residual
  Residual-Control   Outer-Iter.   Inner-Iter.     Column Row Layer    Maximum-Head-Change  Column Row Layer    Maximum-Flux-Residual          L2-NORM 
          0                 1           2             3    7     1       0.9562544156E-02       4    5    1         0.4495684151E+00      0.1118258531E+01
          0                 2           2             3    7     1      -0.9301747198E-03       4    5    1        -0.4495717414E-01      0.1117288181E+00
          0                 3           1             3    7     1       0.6334146803E-04       4    5    1         0.3147000403E-02      0.7812212414E-02

    ------------------------------------------------
       NWT REQUIRED            3 OUTER ITERATIONS 
       AND A TOTAL OF          5 INNER ITERATIONS.
    ------------------------------------------------

 NO OUTPUT CONTROL FOR STRESS PERIOD   36   TIME STEP    2
 
 SOLVING FOR HEAD 
                                                   Max.-Head-Change                         Max.-Flux-Residual
  Residual-Control   Outer-Iter.   Inner-Iter.     Column Row Layer    Maximum-Head-Change  Column Row Layer    Maximum-Flux-Residual          L2-NORM 
          0                 1           2             3    7     1       0.9376825790E-02       4    5    1         0.4311244625E+00      0.1088705176E+01
          0                 2           2             3    7     1      -0.9121093943E-03       4    5    1        -0.4311275142E-01      0.1087698187E+00
          0                 3           1             3    7     1       0.6211128545E-04       4    5    1         0.3017891013E-02      0.7604675822E-02

    ------------------------------------------------
       NWT REQUIRED            3 OUTER ITERATIONS 
       AND A TOTAL OF          5 INNER ITERATIONS.
    ------------------------------------------------

 NO OUTPUT CONTROL FOR STRESS PERIOD   36   TIME STEP    3
 
 SOLVING FOR HEAD 
                                                   Max.-Head-Change                         Max.-Flux-Residual
  Residual-Control   Outer-Iter.   Inner-Iter.     Column Row Layer    Maximum-Head-Change  Column Row Layer    Maximum-Flux-Residual          L2-NORM 
          0                 1           2             3    7     1       0.9194864626E-02       4    5    1         0.4136777633E+00      0.1057142212E+01
          0                 2           2             3    7     1      -0.8944095426E-03       4    5    1        -0.4136805649E-01      0.1056245132E+00
          0                 3           1             3    7     1       0.6090598954E-04       4    5    1         0.2895762549E-02      0.7385577300E-02

    ------------------------------------------------
       NWT REQUIRED            3 OUTER ITERATIONS 
       AND A TOTAL OF          5 INNER ITERATIONS.
    ------------------------------------------------

 NO OUTPUT CONTROL FOR STRESS PERIOD   36   TIME STEP    4
 
 SOLVING FOR HEAD 
                                                   Max.-Head-Change                         Max.-Flux-Residual
  Residual-Control   Outer-Iter.   Inner-Iter.     Column Row Layer    Maximum-Head-Change  Column Row Layer    Maximum-Flux-Residual          L2-NORM 
          0                 1           2             3    7     1       0.9016629436E-02       4    5    1         0.3971402921E+00      0.1027318381E+01
          0                 2           2             3    7     1      -0.8770721275E-03       4    5    1        -0.3971428655E-01      0.1026527224E+00
          0                 3           1             3    7     1       0.5972537546E-04       4    5    1         0.2779998820E-02      0.7178546272E-02

    ------------------------------------------------
       NWT REQUIRED            3 OUTER ITERATIONS 
       AND A TOTAL OF          5 INNER ITERATIONS.
    ------------------------------------------------

 NO OUTPUT CONTROL FOR STRESS PERIOD   36   TIME STEP    5
 
 SOLVING FOR HEAD 
                                                   Max.-Head-Change                         Max.-Flux-Residual
  Residual-Control   Outer-Iter.   Inner-Iter.     Column Row Layer    Maximum-Head-Change  Column Row Layer    Maximum-Flux-Residual          L2-NORM 
          0                 1           2             3    7     1       0.8842086655E-02       4    5    1         0.3814586761E+00      0.9990965046E+00
          0                 2           2             3    7     1      -0.8600938845E-03       4    5    1        -0.3814610412E-01      0.9983850623E-01
          0                 3           1             3    7     1       0.5856921966E-04       4    5    1         0.2670226198E-02      0.6980879215E-02

    ------------------------------------------------
       NWT REQUIRED            3 OUTER ITERATIONS 
       AND A TOTAL OF          5 INNER ITERATIONS.
    ------------------------------------------------

 NO OUTPUT CONTROL FOR STRESS PERIOD   36   TIME STEP    6
 
 SOLVING FOR HEAD 
                                                   Max.-Head-Change                         Max.-Flux-Residual
  Residual-Control   Outer-Iter.   Inner-Iter.     Column Row Layer    Maximum-Head-Change  Column Row Layer    Maximum-Flux-Residual          L2-NORM 
          0                 1           2             3    7     1       0.8671437486E-02       4    5    1         0.3666129113E+00      0.9723821572E+00
          0                 2           2             3    7     1      -0.8434943838E-03       4    5    1        -0.3666150863E-01      0.9717648435E-01
          0                 3           1             3    7     1       0.5743885474E-04       4    5    1         0.2566304665E-02      0.6796566542E-02

    ------------------------------------------------
       NWT REQUIRED            3 OUTER ITERATIONS 
       AND A TOTAL OF          5 INNER ITERATIONS.
    ------------------------------------------------

 NO OUTPUT CONTROL FOR STRESS PERIOD   36   TIME STEP    7
 
 SOLVING FOR HEAD 
                                                   Max.-Head-Change                         Max.-Flux-Residual
  Residual-Control   Outer-Iter.   Inner-Iter.     Column Row Layer    Maximum-Head-Change  Column Row Layer    Maximum-Flux-Residual          L2-NORM 
          0                 1           2             3    7     1       0.8504385069E-02       4    5    1         0.3525247154E+00      0.9470640180E+00
          0                 2           2             3    7     1      -0.8272447490E-03       4    5    1        -0.3525267170E-01      0.9465211571E-01
          0                 3           1             3    7     1       0.5633231454E-04       4    5    1         0.2467686191E-02      0.6620691115E-02

    ------------------------------------------------
       NWT REQUIRED            3 OUTER ITERATIONS 
       AND A TOTAL OF          5 INNER ITERATIONS.
    ------------------------------------------------

 NO OUTPUT CONTROL FOR STRESS PERIOD   36   TIME STEP    8
 
 SOLVING FOR HEAD 
                                                   Max.-Head-Change                         Max.-Flux-Residual
  Residual-Control   Outer-Iter.   Inner-Iter.     Column Row Layer    Maximum-Head-Change  Column Row Layer    Maximum-Flux-Residual          L2-NORM 
          0                 1           2             3    7     1       0.8341125721E-02       4    5    1         0.3391798115E+00      0.9230479421E+00
          0                 2           2             3    7     1      -0.8113640766E-03       4    5    1        -0.3391816541E-01      0.9225688729E-01
          0                 3           1             3    7     1       0.5525089910E-04       4    5    1         0.2374270851E-02      0.6453670609E-02

    ------------------------------------------------
       NWT REQUIRED            3 OUTER ITERATIONS 
       AND A TOTAL OF          5 INNER ITERATIONS.
    ------------------------------------------------

 NO OUTPUT CONTROL FOR STRESS PERIOD   36   TIME STEP    9
 
 SOLVING FOR HEAD 
                                                   Max.-Head-Change                         Max.-Flux-Residual
  Residual-Control   Outer-Iter.   Inner-Iter.     Column Row Layer    Maximum-Head-Change  Column Row Layer    Maximum-Flux-Residual          L2-NORM 
          0                 1           2             3    7     1       0.8181355460E-02       4    5    1         0.3265206172E+00      0.9002454394E+00
          0                 2           2             3    7     1      -0.7958227975E-03       4    5    1        -0.3265223148E-01      0.8998162123E-01
          0                 3           1             3    7     1       0.5419259563E-04       4    5    1         0.2285655595E-02      0.6294956529E-02

    ------------------------------------------------
       NWT REQUIRED            3 OUTER ITERATIONS 
       AND A TOTAL OF          5 INNER ITERATIONS.
    ------------------------------------------------

 NO OUTPUT CONTROL FOR STRESS PERIOD   36   TIME STEP   10
 
 SOLVING FOR HEAD 
                                                   Max.-Head-Change                         Max.-Flux-Residual
  Residual-Control   Outer-Iter.   Inner-Iter.     Column Row Layer    Maximum-Head-Change  Column Row Layer    Maximum-Flux-Residual          L2-NORM 
          0                 1           2             3    7     1       0.8025263278E-02       4    5    1         0.3145076117E+00      0.8785867977E+00
          0                 2           2             3    7     1      -0.7806392955E-03       4    5    1        -0.3145091769E-01      0.8782123697E-01
          0                 3           1             3    7     1       0.5315865554E-04       4    5    1         0.2201563704E-02      0.6143932841E-02

    ------------------------------------------------
       NWT REQUIRED            3 OUTER ITERATIONS 
       AND A TOTAL OF          5 INNER ITERATIONS.
    ------------------------------------------------

 NO OUTPUT CONTROL FOR STRESS PERIOD   36   TIME STEP   11
 
 SOLVING FOR HEAD 
                                                   Max.-Head-Change                         Max.-Flux-Residual
  Residual-Control   Outer-Iter.   Inner-Iter.     Column Row Layer    Maximum-Head-Change  Column Row Layer    Maximum-Flux-Residual          L2-NORM 
          0                 1           2             3    7     1       0.7872539912E-02       4    5    1         0.3031034367E+00      0.8579916389E+00
          0                 2           2             3    7     1      -0.7657834865E-03       4    5    1        -0.3031048802E-01      0.8576613452E-01
          0                 3           1             3    7     1       0.5214702996E-04       4    5    1         0.2121733709E-02      0.6000623603E-02

    ------------------------------------------------
       NWT REQUIRED            3 OUTER ITERATIONS 
       AND A TOTAL OF          5 INNER ITERATIONS.
    ------------------------------------------------

 NO OUTPUT CONTROL FOR STRESS PERIOD   36   TIME STEP   12
 
 SOLVING FOR HEAD 
                                                   Max.-Head-Change                         Max.-Flux-Residual
  Residual-Control   Outer-Iter.   Inner-Iter.     Column Row Layer    Maximum-Head-Change  Column Row Layer    Maximum-Flux-Residual          L2-NORM 
          0                 1           2             3    7     1       0.7723612311E-02       4    5    1         0.2922883387E+00      0.8384002282E+00
          0                 2           2             3    7     1      -0.7512969020E-03       4    5    1        -0.2922896708E-01      0.8381077908E-01
          0                 3           1             3    7     1       0.5116054736E-04       4    5    1         0.2046027324E-02      0.5864142161E-02

    ------------------------------------------------
       NWT REQUIRED            3 OUTER ITERATIONS 
       AND A TOTAL OF          5 INNER ITERATIONS.
    ------------------------------------------------

 NO OUTPUT CONTROL FOR STRESS PERIOD   36   TIME STEP   13
 
 SOLVING FOR HEAD 
                                                   Max.-Head-Change                         Max.-Flux-Residual
  Residual-Control   Outer-Iter.   Inner-Iter.     Column Row Layer    Maximum-Head-Change  Column Row Layer    Maximum-Flux-Residual          L2-NORM 
          0                 1           2             3    7     1       0.7577667283E-02       4    5    1         0.2820289120E+00      0.8197412444E+00
          0                 2           2             3    7     1      -0.7371004404E-03       4    5    1        -0.2820301424E-01      0.8194832080E-01
          0                 3           1             3    7     1       0.5019382107E-04       4    5    1         0.1974210700E-02      0.5734091628E-02

    ------------------------------------------------
       NWT REQUIRED            3 OUTER ITERATIONS 
       AND A TOTAL OF          5 INNER ITERATIONS.
    ------------------------------------------------

 NO OUTPUT CONTROL FOR STRESS PERIOD   36   TIME STEP   14
 
 SOLVING FOR HEAD 
                                                   Max.-Head-Change                         Max.-Flux-Residual
  Residual-Control   Outer-Iter.   Inner-Iter.     Column Row Layer    Maximum-Head-Change  Column Row Layer    Maximum-Flux-Residual          L2-NORM 
          0                 1           2             3    7     1       0.7435629834E-02       4    5    1         0.2722785590E+00      0.8019764356E+00
          0                 2           2             3    7     1      -0.7232840800E-03       4    5    1        -0.2722796960E-01      0.8017465000E-01
          0                 3           1             3    7     1       0.4925297855E-04       4    5    1         0.1905957592E-02      0.5610046452E-02

    ------------------------------------------------
       NWT REQUIRED            3 OUTER ITERATIONS 
       AND A TOTAL OF          5 INNER ITERATIONS.
    ------------------------------------------------

 NO OUTPUT CONTROL FOR STRESS PERIOD   36   TIME STEP   15
 
 SOLVING FOR HEAD 
                                                   Max.-Head-Change                         Max.-Flux-Residual
  Residual-Control   Outer-Iter.   Inner-Iter.     Column Row Layer    Maximum-Head-Change  Column Row Layer    Maximum-Flux-Residual          L2-NORM 
          0                 1           2             3    7     1       0.7296440186E-02       4    5    1         0.2630236655E+00      0.7850293329E+00
          0                 2           2             3    7     1      -0.7097447321E-03       4    5    1        -0.2630247165E-01      0.7848267006E-01
          0                 3           1             3    7     1       0.4833099983E-04       4    5    1         0.1841172814E-02      0.5492012275E-02

    ------------------------------------------------
       NWT REQUIRED            3 OUTER ITERATIONS 
       AND A TOTAL OF          5 INNER ITERATIONS.
    ------------------------------------------------

 NO OUTPUT CONTROL FOR STRESS PERIOD   36   TIME STEP   16
 
 SOLVING FOR HEAD 
                                                   Max.-Head-Change                         Max.-Flux-Residual
  Residual-Control   Outer-Iter.   Inner-Iter.     Column Row Layer    Maximum-Head-Change  Column Row Layer    Maximum-Flux-Residual          L2-NORM 
          0                 1           2             3    7     1       0.7161012337E-02       4    5    1         0.2542212245E+00      0.7688779833E+00
          0                 2           2             3    7     1      -0.6965713040E-03       4    5    1        -0.2542221967E-01      0.7686973953E-01
          0                 3           1             3    7     1       0.4743393855E-04       4    5    1         0.1779555209E-02      0.5379136124E-02

    ------------------------------------------------
       NWT REQUIRED            3 OUTER ITERATIONS 
       AND A TOTAL OF          5 INNER ITERATIONS.
    ------------------------------------------------

 NO OUTPUT CONTROL FOR STRESS PERIOD   36   TIME STEP   17
 
 SOLVING FOR HEAD 
                                                   Max.-Head-Change                         Max.-Flux-Residual
  Residual-Control   Outer-Iter.   Inner-Iter.     Column Row Layer    Maximum-Head-Change  Column Row Layer    Maximum-Flux-Residual          L2-NORM 
          0                 1           2             3    7     1       0.7028287305E-02       4    5    1         0.2458604345E+00      0.7534498617E+00
          0                 2           2             3    7     1      -0.6836607863E-03       4    5    1        -0.2458613344E-01      0.7532886469E-01
          0                 3           1             3    7     1       0.4655478112E-04       4    5    1         0.1721029231E-02      0.5271432225E-02

    ------------------------------------------------
       NWT REQUIRED            3 OUTER ITERATIONS 
       AND A TOTAL OF          5 INNER ITERATIONS.
    ------------------------------------------------

 NO OUTPUT CONTROL FOR STRESS PERIOD   36   TIME STEP   18
 
 SOLVING FOR HEAD 
                                                   Max.-Head-Change                         Max.-Flux-Residual
  Residual-Control   Outer-Iter.   Inner-Iter.     Column Row Layer    Maximum-Head-Change  Column Row Layer    Maximum-Flux-Residual          L2-NORM 
          0                 1           2             3    7     1       0.6898694968E-02       4    5    1         0.2379163853E+00      0.7387281728E+00
          0                 2           2             3    7     1      -0.6710549943E-03       4    5    1        -0.2379172188E-01      0.7385840901E-01
          0                 3           1             3    7     1       0.4569637379E-04       4    5    1         0.1665420455E-02      0.5168836754E-02

    ------------------------------------------------
       NWT REQUIRED            3 OUTER ITERATIONS 
       AND A TOTAL OF          5 INNER ITERATIONS.
    ------------------------------------------------

 NO OUTPUT CONTROL FOR STRESS PERIOD   36   TIME STEP   19
 
 SOLVING FOR HEAD 
                                                   Max.-Head-Change                         Max.-Flux-Residual
  Residual-Control   Outer-Iter.   Inner-Iter.     Column Row Layer    Maximum-Head-Change  Column Row Layer    Maximum-Flux-Residual          L2-NORM 
          0                 1           2             3    7     1       0.6772650638E-02       4    5    1         0.2303662962E+00      0.7246736409E+00
          0                 2           2             3    7     1      -0.6587943253E-03       4    5    1        -0.2303670685E-01      0.7245457985E-01
          0                 3           1             3    7     1       0.4486146812E-04       4    5    1         0.1612569446E-02      0.5070598036E-02

    ------------------------------------------------
       NWT REQUIRED            3 OUTER ITERATIONS 
       AND A TOTAL OF          5 INNER ITERATIONS.
    ------------------------------------------------

 NO OUTPUT CONTROL FOR STRESS PERIOD   36   TIME STEP   20
 
 SOLVING FOR HEAD 
                                                   Max.-Head-Change                         Max.-Flux-Residual
  Residual-Control   Outer-Iter.   Inner-Iter.     Column Row Layer    Maximum-Head-Change  Column Row Layer    Maximum-Flux-Residual          L2-NORM 
          0                 1           2             3    7     1       0.6649090697E-02       4    5    1         0.2231881239E+00      0.7112311355E+00
          0                 2           2             3    7     1      -0.6467753196E-03       4    5    1        -0.2231888399E-01      0.7111180372E-01
          0                 3           1             3    7     1       0.4404301881E-04       4    5    1         0.1562321876E-02      0.4976828752E-02

    ------------------------------------------------
       NWT REQUIRED            3 OUTER ITERATIONS 
       AND A TOTAL OF          5 INNER ITERATIONS.
    ------------------------------------------------

 NO OUTPUT CONTROL FOR STRESS PERIOD   36   TIME STEP   21
 
 SOLVING FOR HEAD 
                                                   Max.-Head-Change                         Max.-Flux-Residual
  Residual-Control   Outer-Iter.   Inner-Iter.     Column Row Layer    Maximum-Head-Change  Column Row Layer    Maximum-Flux-Residual          L2-NORM 
          0                 1           2             3    7     1       0.6528933451E-02       4    5    1         0.2163610975E+00      0.6983847242E+00
          0                 2           2             3    7     1      -0.6350873035E-03       4    5    1        -0.2163617619E-01      0.6982836689E-01
          0                 3           1             3    7     1       0.4324710908E-04       4    5    1         0.1514532343E-02      0.4887074584E-02

    ------------------------------------------------
       NWT REQUIRED            3 OUTER ITERATIONS 
       AND A TOTAL OF          5 INNER ITERATIONS.
    ------------------------------------------------

 NO OUTPUT CONTROL FOR STRESS PERIOD   36   TIME STEP   22
 
 SOLVING FOR HEAD 
                                                   Max.-Head-Change                         Max.-Flux-Residual
  Residual-Control   Outer-Iter.   Inner-Iter.     Column Row Layer    Maximum-Head-Change  Column Row Layer    Maximum-Flux-Residual          L2-NORM 
          0                 1           2             3    7     1       0.6411118123E-02       4    5    1         0.2098658434E+00      0.6860904312E+00
          0                 2           2             3    7     1      -0.6236270908E-03       4    5    1        -0.2098664600E-01      0.6859998524E-01
          0                 3           1             3    7     1       0.4246671139E-04       4    5    1         0.1469065287E-02      0.4801171759E-02

    ------------------------------------------------
       NWT REQUIRED            3 OUTER ITERATIONS 
       AND A TOTAL OF          5 INNER ITERATIONS.
    ------------------------------------------------

 NO OUTPUT CONTROL FOR STRESS PERIOD   36   TIME STEP   23
 
 SOLVING FOR HEAD 
                                                   Max.-Head-Change                         Max.-Flux-Residual
  Residual-Control   Outer-Iter.   Inner-Iter.     Column Row Layer    Maximum-Head-Change  Column Row Layer    Maximum-Flux-Residual          L2-NORM 
          0                 1           2             3    7     1       0.6296564277E-02       4    5    1         0.2036989376E+00      0.6743340218E+00
          0                 2           2             3    7     1      -0.6124841318E-03       4    5    1        -0.2036995107E-01      0.6742545992E-01
          0                 3           1             3    7     1       0.4170791771E-04       4    5    1         0.1425896659E-02      0.4719014504E-02

    ------------------------------------------------
       NWT REQUIRED            3 OUTER ITERATIONS 
       AND A TOTAL OF          5 INNER ITERATIONS.
    ------------------------------------------------

 NO OUTPUT CONTROL FOR STRESS PERIOD   36   TIME STEP   24
 
 SOLVING FOR HEAD 
                                                   Max.-Head-Change                         Max.-Flux-Residual
  Residual-Control   Outer-Iter.   Inner-Iter.     Column Row Layer    Maximum-Head-Change  Column Row Layer    Maximum-Flux-Residual          L2-NORM 
          0                 1           2             3    7     1       0.6184699744E-02       4    5    1         0.1978123623E+00      0.6630752092E+00
          0                 2           2             3    7     1      -0.6016027689E-03       4    5    1        -0.1978128948E-01      0.6630021235E-01
          0                 3           1             3    7     1       0.4096693820E-04       4    5    1         0.1384690366E-02      0.4640296480E-02

    ------------------------------------------------
       NWT REQUIRED            3 OUTER ITERATIONS 
       AND A TOTAL OF          5 INNER ITERATIONS.
    ------------------------------------------------

 NO OUTPUT CONTROL FOR STRESS PERIOD   36   TIME STEP   25
 
 SOLVING FOR HEAD 
                                                   Max.-Head-Change                         Max.-Flux-Residual
  Residual-Control   Outer-Iter.   Inner-Iter.     Column Row Layer    Maximum-Head-Change  Column Row Layer    Maximum-Flux-Residual          L2-NORM 
          0                 1           2             3    7     1       0.6075454439E-02       4    5    1         0.1922206626E+00      0.6522943738E+00
          0                 2           2             3    7     1      -0.5909761850E-03       4    5    1        -0.1922211581E-01      0.6522293467E-01
          0                 3           1             3    7     1       0.4024330754E-04       4    5    1         0.1345548223E-02      0.4565020342E-02

    ------------------------------------------------
       NWT REQUIRED            3 OUTER ITERATIONS 
       AND A TOTAL OF          5 INNER ITERATIONS.
    ------------------------------------------------

 NO OUTPUT CONTROL FOR STRESS PERIOD   36   TIME STEP   26
 
 SOLVING FOR HEAD 
                                                   Max.-Head-Change                         Max.-Flux-Residual
  Residual-Control   Outer-Iter.   Inner-Iter.     Column Row Layer    Maximum-Head-Change  Column Row Layer    Maximum-Flux-Residual          L2-NORM 
          0                 1           2             3    7     1       0.5968758579E-02       4    5    1         0.1868783174E+00      0.6419638468E+00
          0                 2           2             3    7     1      -0.5805975920E-03       4    5    1        -0.1868787782E-01      0.6419048115E-01
          0                 3           1             3    7     1       0.3953656446E-04       4    5    1         0.1308151580E-02      0.4492871253E-02

    ------------------------------------------------
       NWT REQUIRED            3 OUTER ITERATIONS 
       AND A TOTAL OF          5 INNER ITERATIONS.
    ------------------------------------------------

 NO OUTPUT CONTROL FOR STRESS PERIOD   36   TIME STEP   27
 
 SOLVING FOR HEAD 
                                                   Max.-Head-Change                         Max.-Flux-Residual
  Residual-Control   Outer-Iter.   Inner-Iter.     Column Row Layer    Maximum-Head-Change  Column Row Layer    Maximum-Flux-Residual          L2-NORM 
          0                 1           2             3    7     1       0.5865040079E-02       4    5    1         0.1818010363E+00      0.6320714438E+00
          0                 2           2             3    7     1      -0.5705086147E-03       4    5    1        -0.1818014654E-01      0.6320193090E-01
          0                 3           1             3    7     1       0.3884954290E-04       4    5    1         0.1272610402E-02      0.4423614217E-02

    ------------------------------------------------
       NWT REQUIRED            3 OUTER ITERATIONS 
       AND A TOTAL OF          5 INNER ITERATIONS.
    ------------------------------------------------

 NO OUTPUT CONTROL FOR STRESS PERIOD   36   TIME STEP   28
 
 SOLVING FOR HEAD 
                                                   Max.-Head-Change                         Max.-Flux-Residual
  Residual-Control   Outer-Iter.   Inner-Iter.     Column Row Layer    Maximum-Head-Change  Column Row Layer    Maximum-Flux-Residual          L2-NORM 
          0                 1           2             3    7     1       0.5763237936E-02       4    5    1         0.1769744935E+00      0.6225818427E+00
          0                 2           2             3    7     1      -0.5606060465E-03       4    5    1        -0.1769748934E-01      0.6225343735E-01
          0                 3           1             3    7     1       0.3817521554E-04       4    5    1         0.1238824400E-02      0.4357290805E-02

    ------------------------------------------------
       NWT REQUIRED            3 OUTER ITERATIONS 
       AND A TOTAL OF          5 INNER ITERATIONS.
    ------------------------------------------------

 NO OUTPUT CONTROL FOR STRESS PERIOD   36   TIME STEP   29
 
 SOLVING FOR HEAD 
                                                   Max.-Head-Change                         Max.-Flux-Residual
  Residual-Control   Outer-Iter.   Inner-Iter.     Column Row Layer    Maximum-Head-Change  Column Row Layer    Maximum-Flux-Residual          L2-NORM 
          0                 1           2             3    7     1       0.5664279172E-02       4    5    1         0.1723703926E+00      0.6134808654E+00
          0                 2           2             3    7     1      -0.5509800611E-03       4    5    1        -0.1723707652E-01      0.6134380858E-01
          0                 3           1             3    7     1       0.3751972217E-04       4    5    1         0.1206595516E-02      0.4293664277E-02

    ------------------------------------------------
       NWT REQUIRED            3 OUTER ITERATIONS 
       AND A TOTAL OF          5 INNER ITERATIONS.
    ------------------------------------------------

 NO OUTPUT CONTROL FOR STRESS PERIOD   36   TIME STEP   30



 STREAM LISTING     PERIOD     36   STEP       30

 LAYER ROW COL. STREAM  RCH.  FLOW INTO     FLOW TO   FLOW OUT OF   OVRLND.     DIRECT     STREAM       STREAM     STREAM     STREAM   STREAMBED  STREAMBED
                SEG.NO.  NO.  STRM. RCH.    AQUIFER    STRM. RCH.    RUNOFF     PRECIP       ET          HEAD       DEPTH      WIDTH   CONDCTNC.   GRADIENT

   1    1    1     1     1    1.9499E+01  2.1750E-01   1.9282E+01  0.000E+00  0.000E+00  0.000E+00  1.09414E+03  1.090E+00  1.182E+01  5.318E-02  1.363E+00
   1    2    2     1     2    1.9282E+01  3.3555E-01   1.8946E+01  0.000E+00  0.000E+00  0.000E+00  1.08914E+03  1.086E+00  1.173E+01  8.213E-02  1.362E+00
   1    3    3     1     3    1.8946E+01  2.8492E-01   1.8661E+01  0.000E+00  0.000E+00  0.000E+00  1.08350E+03  1.081E+00  1.164E+01  6.982E-02  1.360E+00
   1    3    4     1     4    1.8661E+01  2.6135E-01   1.8400E+01  0.000E+00  0.000E+00  0.000E+00  1.07848E+03  1.076E+00  1.155E+01  6.412E-02  1.359E+00
   1    4    5     2     1    1.6400E+01  3.0673E-01   1.6093E+01  0.000E+00  0.000E+00  0.000E+00  1.07287E+03  9.324E-01  1.200E+01  7.800E-02  1.311E+00
   1    5    6     2     2    1.6093E+01  2.3538E-01   1.5858E+01  0.000E+00  0.000E+00  0.000E+00  1.06743E+03  9.230E-01  1.200E+01  6.000E-02  1.308E+00
   1    6    6     2     3    1.5858E+01  2.3489E-01   1.5623E+01  0.000E+00  0.000E+00  0.000E+00  1.06271E+03  9.149E-01  1.200E+01  6.000E-02  1.305E+00
   1    7    6     2     4    1.5623E+01  2.3440E-01   1.5389E+01  0.000E+00  0.000E+00  0.000E+00  1.05798E+03  9.067E-01  1.200E+01  6.000E-02  1.302E+00
   1    8    6     2     5    1.5389E+01  2.3390E-01   1.5155E+01  0.000E+00  0.000E+00  0.000E+00  1.05326E+03  8.984E-01  1.200E+01  6.000E-02  1.299E+00
   1    3    5     3     1    2.0000E+00  2.8252E-01   1.7175E+00  0.000E+00  0.000E+00  0.000E+00  1.07555E+03  1.909E+00  9.636E+00  7.227E-02  1.955E+00
   1    3    6     3     2    1.7175E+00  2.4905E-01   1.4684E+00  0.000E+00  0.000E+00  0.000E+00  1.07264E+03  1.727E+00  8.909E+00  6.682E-02  1.864E+00
   1    3    7     3     3    1.4684E+00  1.9718E-01   1.2712E+00  0.000E+00  0.000E+00  0.000E+00  1.06987E+03  1.555E+00  8.218E+00  5.547E-02  1.777E+00
   1    4    8     3     4    1.2712E+00  2.2567E-01   1.0456E+00  0.000E+00  0.000E+00  0.000E+00  1.06682E+03  1.364E+00  7.455E+00  6.709E-02  1.682E+00
   1    5    8     3     5    1.0456E+00  1.5790E-01   8.8768E-01  0.000E+00  0.000E+00  0.000E+00  1.06362E+03  1.164E+00  6.655E+00  4.991E-02  1.582E+00
   1    6    8     3     6    8.8768E-01  5.5980E-02   8.3170E-01  0.000E+00  0.000E+00  0.000E+00  1.06158E+03  1.036E+00  6.145E+00  1.844E-02  1.518E+00
   1    5   10     4     1    1.0000E+01  9.0919E-02   9.9091E+00  0.000E+00  0.000E+00  0.000E+00  1.07836E+03  6.368E-01  1.000E+01  2.500E-02  1.212E+00
   1    5    9     4     2    9.9091E+00  1.8158E-01   9.7275E+00  0.000E+00  0.000E+00  0.000E+00  1.07154E+03  6.315E-01  1.000E+01  5.000E-02  1.211E+00
   1    6    8     4     3    9.7275E+00  1.2689E-01   9.6006E+00  0.000E+00  0.000E+00  0.000E+00  1.06381E+03  6.256E-01  1.000E+01  3.500E-02  1.209E+00
   1    6    8     5     1    1.0432E+01  2.2686E-01   1.0205E+01  0.000E+00  0.000E+00  0.000E+00  1.05868E+03  6.790E-01  1.542E+01  6.166E-02  1.226E+00
   1    7    7     5     2    1.0205E+01  2.7894E-01   9.9265E+00  0.000E+00  0.000E+00  0.000E+00  1.05417E+03  6.732E-01  1.519E+01  7.594E-02  1.224E+00
   1    8    7     5     3    9.9265E+00  1.9221E-01   9.7343E+00  0.000E+00  0.000E+00  0.000E+00  1.04992E+03  6.676E-01  1.497E+01  5.241E-02  1.223E+00
   1    8    6     5     4    9.7343E+00  1.3577E-01   9.5985E+00  0.000E+00  0.000E+00  0.000E+00  1.04691E+03  6.637E-01  1.482E+01  3.706E-02  1.221E+00
   1    9    6     6     1    2.4753E+01  2.5261E-01   2.4501E+01  0.000E+00  0.000E+00  0.000E+00  1.04394E+03  1.210E+00  1.200E+01  6.000E-02  1.403E+00
   1   10    7     6     2    2.4501E+01  2.5216E-01   2.4249E+01  0.000E+00  0.000E+00  0.000E+00  1.03938E+03  1.203E+00  1.200E+01  6.000E-02  1.401E+00
   1   11    7     6     3    2.4249E+01  2.5171E-01   2.3997E+01  0.000E+00  0.000E+00  0.000E+00  1.03483E+03  1.195E+00  1.200E+01  6.000E-02  1.398E+00
   1   12    7     6     4    2.3997E+01  2.5126E-01   2.3746E+01  0.000E+00  0.000E+00  0.000E+00  1.03028E+03  1.188E+00  1.200E+01  6.000E-02  1.396E+00
   1   13    7     6     5    2.3746E+01  3.2785E-03   2.3742E+01  0.000E+00  0.000E+00  0.000E+00  1.02709E+03  1.184E+00  1.200E+01  2.400E-02  4.553E-02
   1   14    9     7     1    1.5000E+02  1.3460E+00   1.4865E+02  0.000E+00  0.000E+00  0.000E+00  1.03987E+03  2.288E+00  5.529E+01  5.593E-01  8.022E-01
   1   13    8     7     2    1.4865E+02  1.8710E+00   1.4678E+02  0.000E+00  0.000E+00  0.000E+00  1.03478E+03  2.279E+00  5.526E+01  6.148E-01  1.014E+00
   1   13    7     7     3    1.4678E+02  1.5262E+00   1.4526E+02  0.000E+00  0.000E+00  0.000E+00  1.02969E+03  2.270E+00  5.522E+01  5.584E-01  9.110E-01
   1   13    6     8     1    1.6900E+02  9.6704E-01   1.6803E+02  0.000E+00  0.000E+00  0.000E+00  1.02482E+03  2.943E+00  4.267E+01  4.348E-01  7.414E-01
   1   13    5     8     2    1.6803E+02  2.1357E-01   1.6782E+02  0.000E+00  0.000E+00  0.000E+00  1.01856E+03  2.939E+00  4.261E+01  4.342E-01  1.640E-01
   1   13    4     8     3    1.6782E+02 -2.3213E+00   1.7014E+02  0.000E+00  0.000E+00  0.000E+00  1.01232E+03  2.946E+00  4.271E+01  4.352E+00 -1.778E-01
   1   13    3     8     4    1.7014E+02 -3.5911E+00   1.7373E+02  0.000E+00  0.000E+00  0.000E+00  1.00609E+03  2.965E+00  4.299E+01  4.381E+00 -2.732E-01
   1   13    2     8     5    1.7373E+02 -2.5690E+00   1.7630E+02  0.000E+00  0.000E+00  0.000E+00  9.99860E+02  2.985E+00  4.328E+01  4.410E+00 -1.942E-01
   1   13    1     8     6    1.7630E+02 -1.9889E+00   1.7829E+02  0.000E+00  0.000E+00  0.000E+00  9.94874E+02  2.999E+00  4.349E+01  2.659E+00 -2.493E-01
   1    8    6     9     1    0.0000E+00  0.0000E+00   0.0000E+00  0.000E+00  0.000E+00  0.000E+00  1.07875E+03  0.000E+00  4.000E+00  0.000E+00  1.000E+00
   1    8    5     9     2    0.0000E+00  0.0000E+00   0.0000E+00  0.000E+00  0.000E+00  0.000E+00  1.07825E+03  0.000E+00  4.000E+00  0.000E+00  1.000E+00





UNSATURATED ZONE PACKAGE VOLUMETRIC BUDGET FOR  TIME STEP    30 STRESS PERIOD   36
  ------------------------------------------------------------------------------



     CUMULATIVE VOLUMES      L**3       RATES FOR THIS TIME STEP      L**3/T
     ------------------                 ------------------------

           IN:                                      IN:
           ---                                      ---
        INFILTRATION =  1508418349.4218          INFILTRATION =           0.8475

          OUT:                                     OUT:
          ----                                     ----
              UZF ET =  1281509537.9027                UZF ET =           0.7500
        UZF RECHARGE =    54028827.0841          UZF RECHARGE =       0.0000E+00

            IN - OUT =   172879984.4350              IN - OUT =       9.7500E-02

          STORAGE:                                 STORAGE:
          --------                                 --------
      STORAGE CHANGE =   173035096.8523        STORAGE CHANGE =       9.7500E-02

 PERCENT DISCREPANCY IS DIFFERENCE BETWEEN IN-OUT MINUS CHANGE IN STORAGE
 DIVIDED BY THE AVERAGE OF IN AND OUT TIMES 100

 PERCENT DISCREPANCY =          -0.00     PERCENT DISCREPANCY =           0.00






1
  VOLUMETRIC BUDGET FOR AGRICULTURAL FIELDS AT  END OF TIME STEP   30, STRESS PERIOD  36
  ------------------------------------------------------------------------------

     CUMULATIVE VOLUMES      L**3       RATES FOR THIS TIME STEP      L**3/T
     ------------------                 ------------------------

           IN:                                      IN:
           ---                                      ---
           AG WELLS      =   463900064.0000             AG WELLS      =           0.0000
      DIVERSION SEGMENTS =   966468928.0000        DIVERSION SEGMENTS =           0.0000
           GW IRRIGATION =           0.0000             GW IRRIGATION =           0.0000
           SW IRRIGATION =           0.0000             SW IRRIGATION =           0.0000
        SYSTEM LOSSES GW =           0.0000          SYSTEM LOSSES GW =           0.0000
        SYSTEM LOSSES SW =           0.0000          SYSTEM LOSSES SW =           0.0000

                TOTAL IN =  1430369024.0000                  TOTAL IN =           0.0000

          OUT:                                     OUT:
          ----                                     ----
           AG WELLS      =           0.0000             AG WELLS      =           0.0000
      DIVERSION SEGMENTS =           0.0000        DIVERSION SEGMENTS =           0.0000
           GW IRRIGATION =   463900064.0000             GW IRRIGATION =           0.0000
           SW IRRIGATION =   966488192.0000             SW IRRIGATION =           0.0000
        SYSTEM LOSSES GW =           0.0000          SYSTEM LOSSES GW =           0.0000
        SYSTEM LOSSES SW =           0.0000          SYSTEM LOSSES SW =           0.0000

               TOTAL OUT =  1430388224.0000                 TOTAL OUT =           0.0000

                IN - OUT =      -19200.0000                  IN - OUT =           0.0000

     PERCENT DISCREPANCY =          -0.00         PERCENT DISCREPANCY =           0.00



1
  VOLUMETRIC BUDGET FOR ENTIRE MODEL AT END OF TIME STEP   30, STRESS PERIOD  36
  ------------------------------------------------------------------------------

     CUMULATIVE VOLUMES      L**3       RATES FOR THIS TIME STEP      L**3/T
     ------------------                 ------------------------

           IN:                                      IN:
           ---                                      ---
             STORAGE     =   767738944.0000               STORAGE     =           1.7087
       CONSTANT HEAD     =           0.0000         CONSTANT HEAD     =           0.0000
     HEAD DEP BOUNDS     =    26342608.0000       HEAD DEP BOUNDS     =           0.2865
      STREAM LEAKAGE     =  1105896704.0000        STREAM LEAKAGE     =          11.6810
        UZF RECHARGE     =    54028828.0000          UZF RECHARGE     =           0.0000
               GW ET     =           0.0000                 GW ET     =           0.0000
     SURFACE LEAKAGE     =           0.0000       SURFACE LEAKAGE     =           0.0000
           AG WELLS      =           0.0000             AG WELLS      =           0.0000

                TOTAL IN =  1954007040.0000                  TOTAL IN =          13.6761

          OUT:                                     OUT:
          ----                                     ----
             STORAGE     =   473410912.0000               STORAGE     =           2.9165
       CONSTANT HEAD     =           0.0000         CONSTANT HEAD     =           0.0000
     HEAD DEP BOUNDS     =    26780638.0000       HEAD DEP BOUNDS     =           0.2896
      STREAM LEAKAGE     =   987100288.0000        STREAM LEAKAGE     =          10.4703
        UZF RECHARGE     =           0.0000          UZF RECHARGE     =           0.0000
               GW ET     =     2818101.5000                 GW ET     =           0.0000
     SURFACE LEAKAGE     =           0.0000       SURFACE LEAKAGE     =           0.0000
           AG WELLS      =   463900064.0000             AG WELLS      =           0.0000

               TOTAL OUT =  1954009984.0000                 TOTAL OUT =          13.6765

                IN - OUT =       -2944.0000                  IN - OUT =      -3.4237E-04

     PERCENT DISCREPANCY =          -0.00         PERCENT DISCREPANCY =          -0.00






         TIME SUMMARY AT END OF TIME STEP   30 IN STRESS PERIOD   36
                    SECONDS     MINUTES      HOURS       DAYS        YEARS
                    -----------------------------------------------------------
   TIME STEP LENGTH  87667.      1461.1      24.352      1.0147     2.77799E-03
 STRESS PERIOD TIME 2.63000E+06  43833.      730.56      30.440     8.33397E-02
         TOTAL TIME 9.21360E+07 1.53560E+06  25593.      1066.4      2.9196    
1
1
                            STRESS PERIOD NO.   37, LENGTH =   2630000.    
                            -----------------------------------------------

                              NUMBER OF TIME STEPS =    30

                               MULTIPLIER FOR DELT =     1.000

                            INITIAL TIME STEP SIZE =   87666.66    

 REUSING NON-PARAMETER GHB CELLS FROM LAST STRESS PERIOD

      2 GHB CELLS

 REUSING STREAM SEGMENT DATA FROM LAST STRESS PERIOD



            AREAL INFILTRATION RATE
 READING ON UNIT   19 WITH FORMAT: (FREE)              

            1           2           3           4           5           6           7           8           9          10
 ........................................................................................................................
   1   1.0000E-10  2.0000E-10   0.000       0.000       0.000       0.000       0.000       0.000       0.000       0.000    
   2   2.0000E-10  1.0000E-10  2.0000E-10   0.000       0.000      8.0000E-10  8.0000E-10  5.0000E-10   0.000       0.000    
   3    0.000      5.0000E-10  1.0000E-10  1.0000E-10  8.0000E-10  8.0000E-10  5.0000E-10  5.0000E-10   0.000       0.000    
   4   8.0000E-10  5.0000E-10  1.0000E-10  1.0000E-10  1.0000E-10  1.0000E-10  1.0000E-10  1.0000E-10  2.0000E-10   0.000    
   5   8.0000E-10  5.0000E-10  1.0000E-10  1.0000E-10  1.0000E-10  1.0000E-10  1.0000E-10  1.0000E-10  1.0000E-10  1.0000E-10
   6   8.0000E-10  5.0000E-10  5.0000E-10  2.0000E-10  2.0000E-10  1.0000E-10  1.0000E-10  1.0000E-10  1.0000E-10  5.0000E-10
   7   8.0000E-10  5.0000E-10  5.0000E-10  2.0000E-10  2.0000E-10  1.0000E-10  1.0000E-10  2.0000E-10  2.0000E-10   0.000    
   8    0.000      5.0000E-10  5.0000E-10  2.0000E-10  2.0000E-10  1.0000E-10  1.0000E-10  2.0000E-10  5.0000E-10   0.000    
   9    0.000      5.0000E-10  5.0000E-10  2.0000E-10  2.0000E-10  1.0000E-10  1.0000E-10  2.0000E-10  5.0000E-10   0.000    
  10    0.000      5.0000E-10  5.0000E-10  2.0000E-10  2.0000E-10  1.0000E-10  1.0000E-10  2.0000E-10  5.0000E-10  8.0000E-10
  11    0.000      1.0000E-10  1.0000E-10  1.0000E-10  1.0000E-10  1.0000E-10  1.0000E-10  2.0000E-10  5.0000E-10   0.000    
  12   1.0000E-10  1.0000E-10  1.0000E-10  1.0000E-10  1.0000E-10  1.0000E-10  1.0000E-10  1.0000E-10  2.0000E-10   0.000    
  13   1.0000E-10  1.0000E-10  2.0000E-10  2.0000E-10  2.0000E-10  2.0000E-10  2.0000E-10  1.0000E-10  1.0000E-10   0.000    
  14    0.000      2.0000E-10  5.0000E-10  5.0000E-10  5.0000E-10  5.0000E-10  5.0000E-10  2.0000E-10  1.0000E-10   0.000    
  15    0.000       0.000      8.0000E-10  8.0000E-10  8.0000E-10  8.0000E-10   0.000       0.000       0.000       0.000    

                  ET RATE =  5.000000E-10

 USING ET EXTINCTION DEPTH FROM PREVIOUS STRESS PERIOD. CURRENT PERIOD IS:      37

 USING EXTINCTION WATER CONTENT FROM PREVIOUS STRESS PERIOD. CURRENT PERIOD IS:      37

 USING AIR ENTRY PRESSURE FROM PREVIOUS STRESS PERIOD. CURRENT PERIOD IS:      37

 USING ROOT PRESSURE HEAD FROM PREVIOUS STRESS PERIOD. CURRENT PERIOD IS:      37

 USING ROOT ACTIVITY FROM PREVIOUS STRESS PERIOD. CURRENT PERIOD IS:      37

 PROCESSING AG STRESS PERIOD DATA

 READING AG STRESS PERIOD DATA

 READING IRRIGATION SEGMENT

 READING IRRIGATION WELL

 READING SUPPLEMENTAL WELL

 END PROCESSING AG STRESS PERIOD DATA OPTIONS
 
 SOLVING FOR HEAD 
                                                   Max.-Head-Change                         Max.-Flux-Residual
  Residual-Control   Outer-Iter.   Inner-Iter.     Column Row Layer    Maximum-Head-Change  Column Row Layer    Maximum-Flux-Residual          L2-NORM 
          0                 1           2             3    7     1       0.5568085552E-02       4    5    1         0.1679767735E+00      0.6068340923E+00
          0                 2           2             3    7     1      -0.5416230478E-03       4    5    1        -0.1679771209E-01      0.6067151879E-01
          0                 3           1             3    7     1       0.3688254448E-04       4    5    1         0.1175840006E-02      0.4245994533E-02

    ------------------------------------------------
       NWT REQUIRED            3 OUTER ITERATIONS 
       AND A TOTAL OF          5 INNER ITERATIONS.
    ------------------------------------------------

 NO OUTPUT CONTROL FOR STRESS PERIOD   37   TIME STEP    1
 
 SOLVING FOR HEAD 
                                                   Max.-Head-Change                         Max.-Flux-Residual
  Residual-Control   Outer-Iter.   Inner-Iter.     Column Row Layer    Maximum-Head-Change  Column Row Layer    Maximum-Flux-Residual          L2-NORM 
          0                 1           2             3    7     1       0.5473605200E-02       4    5    1         0.1637806037E+00      0.6087614158E+00
          0                 2           2             3    7     1      -0.5324326892E-03       4    5    1        -0.1637809283E-01      0.6082335562E-01
          0                 3           1             3    7     1       0.3625671502E-04       4    5    1         0.1146466676E-02      0.4252546083E-02

    ------------------------------------------------
       NWT REQUIRED            3 OUTER ITERATIONS 
       AND A TOTAL OF          5 INNER ITERATIONS.
    ------------------------------------------------

 NO OUTPUT CONTROL FOR STRESS PERIOD   37   TIME STEP    2
 
 SOLVING FOR HEAD 
                                                   Max.-Head-Change                         Max.-Flux-Residual
  Residual-Control   Outer-Iter.   Inner-Iter.     Column Row Layer    Maximum-Head-Change  Column Row Layer    Maximum-Flux-Residual          L2-NORM 
          0                 1           2             3    7     1       0.5381767979E-02       4    5    1         0.1597824269E+00      0.5995501837E+00
          0                 2           2             3    7     1      -0.5234994346E-03       4    5    1        -0.1597827303E-01      0.5990860540E-01
          0                 3           1             3    7     1       0.3564839466E-04       4    5    1         0.1118479317E-02      0.4189365586E-02

    ------------------------------------------------
       NWT REQUIRED            3 OUTER ITERATIONS 
       AND A TOTAL OF          5 INNER ITERATIONS.
    ------------------------------------------------

 NO OUTPUT CONTROL FOR STRESS PERIOD   37   TIME STEP    3
 
 SOLVING FOR HEAD 
                                                   Max.-Head-Change                         Max.-Flux-Residual
  Residual-Control   Outer-Iter.   Inner-Iter.     Column Row Layer    Maximum-Head-Change  Column Row Layer    Maximum-Flux-Residual          L2-NORM 
          0                 1           2             3    7     1       0.5292011244E-02       4    5    1         0.1559569840E+00      0.5907994664E+00
          0                 2           2             3    7     1      -0.5147685540E-03       4    5    1        -0.1559572676E-01      0.5903907254E-01
          0                 3           1             3    7     1       0.3505385389E-04       4    5    1         0.1091701063E-02      0.4128953096E-02

    ------------------------------------------------
       NWT REQUIRED            3 OUTER ITERATIONS 
       AND A TOTAL OF          5 INNER ITERATIONS.
    ------------------------------------------------

 NO OUTPUT CONTROL FOR STRESS PERIOD   37   TIME STEP    4
 
 SOLVING FOR HEAD 
                                                   Max.-Head-Change                         Max.-Flux-Residual
  Residual-Control   Outer-Iter.   Inner-Iter.     Column Row Layer    Maximum-Head-Change  Column Row Layer    Maximum-Flux-Residual          L2-NORM 
          0                 1           2             3    7     1       0.5204276147E-02       4    5    1         0.1523101155E+00      0.5824791549E+00
          0                 2           2             3    7     1      -0.5062343237E-03       4    5    1        -0.1523103805E-01      0.5821188890E-01
          0                 3           1             3    7     1       0.3447270504E-04       4    5    1         0.1066172864E-02      0.4071488980E-02

    ------------------------------------------------
       NWT REQUIRED            3 OUTER ITERATIONS 
       AND A TOTAL OF          5 INNER ITERATIONS.
    ------------------------------------------------

 NO OUTPUT CONTROL FOR STRESS PERIOD   37   TIME STEP    5
 
 SOLVING FOR HEAD 
                                                   Max.-Head-Change                         Max.-Flux-Residual
  Residual-Control   Outer-Iter.   Inner-Iter.     Column Row Layer    Maximum-Head-Change  Column Row Layer    Maximum-Flux-Residual          L2-NORM 
          0                 1           2             3    7     1       0.5118997566E-02       4    5    1         0.1488328757E+00      0.5745654162E+00
          0                 2           2             3    7     1      -0.4979390450E-03       4    5    1        -0.1488331238E-01      0.5742497891E-01
          0                 3           1             3    7     1       0.3390782771E-04       4    5    1         0.1041832100E-02      0.4016991855E-02

    ------------------------------------------------
       NWT REQUIRED            3 OUTER ITERATIONS 
       AND A TOTAL OF          5 INNER ITERATIONS.
    ------------------------------------------------

 NO OUTPUT CONTROL FOR STRESS PERIOD   37   TIME STEP    6
 
 SOLVING FOR HEAD 
                                                   Max.-Head-Change                         Max.-Flux-Residual
  Residual-Control   Outer-Iter.   Inner-Iter.     Column Row Layer    Maximum-Head-Change  Column Row Layer    Maximum-Flux-Residual          L2-NORM 
          0                 1           2             3    7     1       0.5035610970E-02       4    5    1         0.1454868161E+00      0.5670036981E+00
          0                 2           2             3    7     1      -0.4898278046E-03       4    5    1        -0.1454870485E-01      0.5667248228E-01
          0                 3           1             3    7     1       0.3335548270E-04       4    5    1         0.1018409559E-02      0.3964486234E-02

    ------------------------------------------------
       NWT REQUIRED            3 OUTER ITERATIONS 
       AND A TOTAL OF          5 INNER ITERATIONS.
    ------------------------------------------------

 NO OUTPUT CONTROL FOR STRESS PERIOD   37   TIME STEP    7
 
 SOLVING FOR HEAD 
                                                   Max.-Head-Change                         Max.-Flux-Residual
  Residual-Control   Outer-Iter.   Inner-Iter.     Column Row Layer    Maximum-Head-Change  Column Row Layer    Maximum-Flux-Residual          L2-NORM 
          0                 1           2             3    7     1       0.4954557835E-02       4    5    1         0.1423097463E+00      0.5597984225E+00
          0                 2           2             3    7     1      -0.4819435455E-03       4    5    1        -0.1423099640E-01      0.5595538465E-01
          0                 3           1             3    7     1       0.3281859388E-04       4    5    1         0.9961699693E-03      0.3914598467E-02

    ------------------------------------------------
       NWT REQUIRED            3 OUTER ITERATIONS 
       AND A TOTAL OF          5 INNER ITERATIONS.
    ------------------------------------------------

 NO OUTPUT CONTROL FOR STRESS PERIOD   37   TIME STEP    8
 
 SOLVING FOR HEAD 
                                                   Max.-Head-Change                         Max.-Flux-Residual
  Residual-Control   Outer-Iter.   Inner-Iter.     Column Row Layer    Maximum-Head-Change  Column Row Layer    Maximum-Flux-Residual          L2-NORM 
          0                 1           2             3    7     1       0.4875276280E-02       4    5    1         0.1392631859E+00      0.5529039418E+00
          0                 2           2             3    7     1      -0.4742316135E-03       4    5    1        -0.1392633900E-01      0.5526889504E-01
          0                 3           1             3    7     1       0.3229344003E-04       4    5    1         0.9748439488E-03      0.3866910394E-02

    ------------------------------------------------
       NWT REQUIRED            3 OUTER ITERATIONS 
       AND A TOTAL OF          5 INNER ITERATIONS.
    ------------------------------------------------

 NO OUTPUT CONTROL FOR STRESS PERIOD   37   TIME STEP    9
 
 SOLVING FOR HEAD 
                                                   Max.-Head-Change                         Max.-Flux-Residual
  Residual-Control   Outer-Iter.   Inner-Iter.     Column Row Layer    Maximum-Head-Change  Column Row Layer    Maximum-Flux-Residual          L2-NORM 
          0                 1           2             3    7     1       0.4797720732E-02       4    5    1         0.1363406764E+00      0.5463075109E+00
          0                 2           2             3    7     1      -0.4666875739E-03       4    5    1        -0.1363408679E-01      0.5461152493E-01
          0                 3           1             3    7     1       0.3177971916E-04       4    5    1         0.9543862964E-03      0.3821072702E-02

    ------------------------------------------------
       NWT REQUIRED            3 OUTER ITERATIONS 
       AND A TOTAL OF          5 INNER ITERATIONS.
    ------------------------------------------------

 NO OUTPUT CONTROL FOR STRESS PERIOD   37   TIME STEP   10
 
 SOLVING FOR HEAD 
                                                   Max.-Head-Change                         Max.-Flux-Residual
  Residual-Control   Outer-Iter.   Inner-Iter.     Column Row Layer    Maximum-Head-Change  Column Row Layer    Maximum-Flux-Residual          L2-NORM 
          0                 1           2             3    7     1       0.4722324477E-02       4    5    1         0.1335505741E+00      0.5400003623E+00
          0                 2           2             3    7     1      -0.4593535747E-03       4    5    1        -0.1335507537E-01      0.5398317089E-01
          0                 3           1             3    7     1       0.3128030116E-04       4    5    1         0.9348555161E-03      0.3777204003E-02

    ------------------------------------------------
       NWT REQUIRED            3 OUTER ITERATIONS 
       AND A TOTAL OF          5 INNER ITERATIONS.
    ------------------------------------------------

 NO OUTPUT CONTROL FOR STRESS PERIOD   37   TIME STEP   11
 
 SOLVING FOR HEAD 
                                                   Max.-Head-Change                         Max.-Flux-Residual
  Residual-Control   Outer-Iter.   Inner-Iter.     Column Row Layer    Maximum-Head-Change  Column Row Layer    Maximum-Flux-Residual          L2-NORM 
          0                 1           2             3    7     1       0.4648542145E-02       4    5    1         0.1308863974E+00      0.5339541582E+00
          0                 2           2             3    7     1      -0.4521765668E-03       4    5    1        -0.1308865661E-01      0.5338014684E-01
          0                 3           1             3    7     1       0.3079157441E-04       4    5    1         0.9162061938E-03      0.3734994487E-02

    ------------------------------------------------
       NWT REQUIRED            3 OUTER ITERATIONS 
       AND A TOTAL OF          5 INNER ITERATIONS.
    ------------------------------------------------

 NO OUTPUT CONTROL FOR STRESS PERIOD   37   TIME STEP   12
 
 SOLVING FOR HEAD 
                                                   Max.-Head-Change                         Max.-Flux-Residual
  Residual-Control   Outer-Iter.   Inner-Iter.     Column Row Layer    Maximum-Head-Change  Column Row Layer    Maximum-Flux-Residual          L2-NORM 
          0                 1           2             3    7     1       0.4576320544E-02       4    5    1         0.1283414657E+00      0.5281465624E+00
          0                 2           2             3    7     1      -0.4451513744E-03       4    5    1        -0.1283416243E-01      0.5280132617E-01
          0                 3           1             3    7     1       0.3031318412E-04       4    5    1         0.8983916018E-03      0.3694891085E-02

    ------------------------------------------------
       NWT REQUIRED            3 OUTER ITERATIONS 
       AND A TOTAL OF          5 INNER ITERATIONS.
    ------------------------------------------------

 NO OUTPUT CONTROL FOR STRESS PERIOD   37   TIME STEP   13
 
 SOLVING FOR HEAD 
                                                   Max.-Head-Change                         Max.-Flux-Residual
  Residual-Control   Outer-Iter.   Inner-Iter.     Column Row Layer    Maximum-Head-Change  Column Row Layer    Maximum-Flux-Residual          L2-NORM 
          0                 1           2             3    7     1       0.4506596434E-02       4    5    1         0.1258951247E+00      0.5225882614E+00
          0                 2           2             3    7     1      -0.4383691195E-03       4    5    1        -0.1258952738E-01      0.5224695046E-01
          0                 3           1             3    7     1       0.2985133800E-04       4    5    1         0.8812671529E-03      0.3656190491E-02

    ------------------------------------------------
       NWT REQUIRED            3 OUTER ITERATIONS 
       AND A TOTAL OF          5 INNER ITERATIONS.
    ------------------------------------------------

 NO OUTPUT CONTROL FOR STRESS PERIOD   37   TIME STEP   14
 
 SOLVING FOR HEAD 
                                                   Max.-Head-Change                         Max.-Flux-Residual
  Residual-Control   Outer-Iter.   Inner-Iter.     Column Row Layer    Maximum-Head-Change  Column Row Layer    Maximum-Flux-Residual          L2-NORM 
          0                 1           2             3    7     1       0.4437829446E-02       4    5    1         0.1235426621E+00      0.5172363316E+00
          0                 2           2             3    7     1      -0.4316799666E-03       4    5    1        -0.1235428022E-01      0.5171313369E-01
          0                 3           1             3    7     1       0.2939583165E-04       4    5    1         0.8647998579E-03      0.3618960195E-02

    ------------------------------------------------
       NWT REQUIRED            3 OUTER ITERATIONS 
       AND A TOTAL OF          5 INNER ITERATIONS.
    ------------------------------------------------

 NO OUTPUT CONTROL FOR STRESS PERIOD   37   TIME STEP   15
 
 SOLVING FOR HEAD 
                                                   Max.-Head-Change                         Max.-Flux-Residual
  Residual-Control   Outer-Iter.   Inner-Iter.     Column Row Layer    Maximum-Head-Change  Column Row Layer    Maximum-Flux-Residual          L2-NORM 
          0                 1           2             3    7     1       0.4370968106E-02       4    5    1         0.1213085479E+00      0.5120923259E+00
          0                 2           2             3    7     1      -0.4251761806E-03       4    5    1        -0.1213086800E-01      0.5120002788E-01
          0                 3           1             3    7     1       0.2895294804E-04       4    5    1         0.8491609947E-03      0.3583067330E-02

    ------------------------------------------------
       NWT REQUIRED            3 OUTER ITERATIONS 
       AND A TOTAL OF          5 INNER ITERATIONS.
    ------------------------------------------------

 NO OUTPUT CONTROL FOR STRESS PERIOD   37   TIME STEP   16
 
 SOLVING FOR HEAD 
                                                   Max.-Head-Change                         Max.-Flux-Residual
  Residual-Control   Outer-Iter.   Inner-Iter.     Column Row Layer    Maximum-Head-Change  Column Row Layer    Maximum-Flux-Residual          L2-NORM 
          0                 1           2             3    7     1       0.4305956656E-02       4    5    1         0.1191575870E+00      0.5071460451E+00
          0                 2           2             3    7     1      -0.4188523395E-03       4    5    1        -0.1191577114E-01      0.5070620808E-01
          0                 3           1             3    7     1       0.2852231771E-04       4    5    1         0.8341042239E-03      0.3548653808E-02

    ------------------------------------------------
       NWT REQUIRED            3 OUTER ITERATIONS 
       AND A TOTAL OF          5 INNER ITERATIONS.
    ------------------------------------------------

 NO OUTPUT CONTROL FOR STRESS PERIOD   37   TIME STEP   17
 
 SOLVING FOR HEAD 
                                                   Max.-Head-Change                         Max.-Flux-Residual
  Residual-Control   Outer-Iter.   Inner-Iter.     Column Row Layer    Maximum-Head-Change  Column Row Layer    Maximum-Flux-Residual          L2-NORM 
          0                 1           2             3    7     1       0.4242251607E-02       4    5    1         0.1171002633E+00      0.5023902614E+00
          0                 2           2             3    7     1      -0.4126555746E-03       4    5    1        -0.1171003806E-01      0.5023151954E-01
          0                 3           1             3    7     1       0.2810034086E-04       4    5    1         0.8197029078E-03      0.3515497015E-02

    ------------------------------------------------
       NWT REQUIRED            3 OUTER ITERATIONS 
       AND A TOTAL OF          5 INNER ITERATIONS.
    ------------------------------------------------

 NO OUTPUT CONTROL FOR STRESS PERIOD   37   TIME STEP   18
 
 SOLVING FOR HEAD 
                                                   Max.-Head-Change                         Max.-Flux-Residual
  Residual-Control   Outer-Iter.   Inner-Iter.     Column Row Layer    Maximum-Head-Change  Column Row Layer    Maximum-Flux-Residual          L2-NORM 
          0                 1           2             3    7     1       0.4179814195E-02       4    5    1         0.1151170551E+00      0.4978037426E+00
          0                 2           2             3    7     1      -0.4065821160E-03       4    5    1        -0.1151171656E-01      0.4977359829E-01
          0                 3           1             3    7     1       0.2768676142E-04       4    5    1         0.8058203905E-03      0.3483448527E-02

    ------------------------------------------------
       NWT REQUIRED            3 OUTER ITERATIONS 
       AND A TOTAL OF          5 INNER ITERATIONS.
    ------------------------------------------------

 NO OUTPUT CONTROL FOR STRESS PERIOD   37   TIME STEP   19
 
 SOLVING FOR HEAD 
                                                   Max.-Head-Change                         Max.-Flux-Residual
  Residual-Control   Outer-Iter.   Inner-Iter.     Column Row Layer    Maximum-Head-Change  Column Row Layer    Maximum-Flux-Residual          L2-NORM 
          0                 1           2             3    7     1       0.4119586194E-02       4    5    1         0.1132190811E+00      0.4933896387E+00
          0                 2           2             3    7     1      -0.4007280323E-03       4    5    1        -0.1132191855E-01      0.4934088822E-01
          0                 3           1             3    7     1       0.2728811913E-04       4    5    1         0.7925345237E-03      0.3453390084E-02

    ------------------------------------------------
       NWT REQUIRED            3 OUTER ITERATIONS 
       AND A TOTAL OF          5 INNER ITERATIONS.
    ------------------------------------------------

 NO OUTPUT CONTROL FOR STRESS PERIOD   37   TIME STEP   20
 
 SOLVING FOR HEAD 
                                                   Max.-Head-Change                         Max.-Flux-Residual
  Residual-Control   Outer-Iter.   Inner-Iter.     Column Row Layer    Maximum-Head-Change  Column Row Layer    Maximum-Flux-Residual          L2-NORM 
          0                 1           2             3    7     1       0.4059988231E-02       4    5    1         0.1114022044E+00      0.4891287945E+00
          0                 2           2             3    7     1      -0.3949263165E-03       4    5    1        -0.1114023031E-01      0.4890747277E-01
          0                 3           1             3    7     1       0.2689304447E-04       4    5    1         0.7798163756E-03      0.3423032680E-02

    ------------------------------------------------
       NWT REQUIRED            3 OUTER ITERATIONS 
       AND A TOTAL OF          5 INNER ITERATIONS.
    ------------------------------------------------

 NO OUTPUT CONTROL FOR STRESS PERIOD   37   TIME STEP   21
 
 SOLVING FOR HEAD 
                                                   Max.-Head-Change                         Max.-Flux-Residual
  Residual-Control   Outer-Iter.   Inner-Iter.     Column Row Layer    Maximum-Head-Change  Column Row Layer    Maximum-Flux-Residual          L2-NORM 
          0                 1           2             3    7     1       0.4002483470E-02       4    5    1         0.1096624592E+00      0.4849906125E+00
          0                 2           2             3    7     1      -0.3893326702E-03       4    5    1        -0.1096625523E-01      0.4849423213E-01
          0                 3           1             3    7     1       0.2651213777E-04       4    5    1         0.7676381074E-03      0.3394183521E-02

    ------------------------------------------------
       NWT REQUIRED            3 OUTER ITERATIONS 
       AND A TOTAL OF          5 INNER ITERATIONS.
    ------------------------------------------------

 NO OUTPUT CONTROL FOR STRESS PERIOD   37   TIME STEP   22
 
 SOLVING FOR HEAD 
                                                   Max.-Head-Change                         Max.-Flux-Residual
  Residual-Control   Outer-Iter.   Inner-Iter.     Column Row Layer    Maximum-Head-Change  Column Row Layer    Maximum-Flux-Residual          L2-NORM 
          0                 1           2             3    7     1       0.3945543766E-02       4    5    1         0.1079961811E+00      0.4810034083E+00
          0                 2           2             3    7     1      -0.3837939892E-03       4    5    1        -0.1079962692E-01      0.4809589707E-01
          0                 3           1             3    7     1       0.2613497359E-04       4    5    1         0.7559741136E-03      0.3366363336E-02

    ------------------------------------------------
       NWT REQUIRED            3 OUTER ITERATIONS 
       AND A TOTAL OF          5 INNER ITERATIONS.
    ------------------------------------------------

 NO OUTPUT CONTROL FOR STRESS PERIOD   37   TIME STEP   23
 
 SOLVING FOR HEAD 
                                                   Max.-Head-Change                         Max.-Flux-Residual
  Residual-Control   Outer-Iter.   Inner-Iter.     Column Row Layer    Maximum-Head-Change  Column Row Layer    Maximum-Flux-Residual          L2-NORM 
          0                 1           2             3    7     1       0.3890617356E-02       4    5    1         0.1063849620E+00      0.4771487148E+00
          0                 2           2             3    7     1      -0.3784511463E-03       4    5    1        -0.1063850454E-01      0.4771098521E-01
          0                 3           1             3    7     1       0.2577114618E-04       4    5    1         0.7446955481E-03      0.3339475897E-02

    ------------------------------------------------
       NWT REQUIRED            3 OUTER ITERATIONS 
       AND A TOTAL OF          5 INNER ITERATIONS.
    ------------------------------------------------

 NO OUTPUT CONTROL FOR STRESS PERIOD   37   TIME STEP   24
 
 SOLVING FOR HEAD 
                                                   Max.-Head-Change                         Max.-Flux-Residual
  Residual-Control   Outer-Iter.   Inner-Iter.     Column Row Layer    Maximum-Head-Change  Column Row Layer    Maximum-Flux-Residual          L2-NORM 
          0                 1           2             3    7     1       0.3836666961E-02       4    5    1         0.1048406958E+00      0.4734229506E+00
          0                 2           2             3    7     1      -0.3732032426E-03       4    5    1        -0.1048407746E-01      0.4733877508E-01
          0                 3           1             3    7     1       0.2541378327E-04       4    5    1         0.7338856715E-03      0.3313382364E-02

    ------------------------------------------------
       NWT REQUIRED            3 OUTER ITERATIONS 
       AND A TOTAL OF          5 INNER ITERATIONS.
    ------------------------------------------------

 NO OUTPUT CONTROL FOR STRESS PERIOD   37   TIME STEP   25
 
 SOLVING FOR HEAD 
                                                   Max.-Head-Change                         Max.-Flux-Residual
  Residual-Control   Outer-Iter.   Inner-Iter.     Column Row Layer    Maximum-Head-Change  Column Row Layer    Maximum-Flux-Residual          L2-NORM 
          0                 1           2             3    7     1       0.3783665140E-02       4    5    1         0.1033602040E+00      0.4698257294E+00
          0                 2           2             3    7     1      -0.3680476095E-03       4    5    1        -0.1033602788E-01      0.4697935869E-01
          0                 3           1             3    7     1       0.2506270355E-04       4    5    1         0.7235221879E-03      0.3288264345E-02

    ------------------------------------------------
       NWT REQUIRED            3 OUTER ITERATIONS 
       AND A TOTAL OF          5 INNER ITERATIONS.
    ------------------------------------------------

 NO OUTPUT CONTROL FOR STRESS PERIOD   37   TIME STEP   26
 
 SOLVING FOR HEAD 
                                                   Max.-Head-Change                         Max.-Flux-Residual
  Residual-Control   Outer-Iter.   Inner-Iter.     Column Row Layer    Maximum-Head-Change  Column Row Layer    Maximum-Flux-Residual          L2-NORM 
          0                 1           2             3    7     1       0.3732072710E-02       4    5    1         0.1019255176E+00      0.4663436901E+00
          0                 2           2             3    7     1      -0.3630290715E-03       4    5    1        -0.1019255885E-01      0.4663150196E-01
          0                 3           1             3    7     1       0.2472095918E-04       4    5    1         0.7134793689E-03      0.3263962239E-02

    ------------------------------------------------
       NWT REQUIRED            3 OUTER ITERATIONS 
       AND A TOTAL OF          5 INNER ITERATIONS.
    ------------------------------------------------

 NO OUTPUT CONTROL FOR STRESS PERIOD   37   TIME STEP   27
 
 SOLVING FOR HEAD 
                                                   Max.-Head-Change                         Max.-Flux-Residual
  Residual-Control   Outer-Iter.   Inner-Iter.     Column Row Layer    Maximum-Head-Change  Column Row Layer    Maximum-Flux-Residual          L2-NORM 
          0                 1           2             3    7     1       0.3681849721E-02       4    5    1         0.1005641637E+00      0.4629814177E+00
          0                 2           2             3    7     1      -0.3581437427E-03       4    5    1        -0.1005642309E-01      0.4629476251E-01
          0                 3           1             3    7     1       0.2438828626E-04       4    5    1         0.7039498594E-03      0.3240431066E-02

    ------------------------------------------------
       NWT REQUIRED            3 OUTER ITERATIONS 
       AND A TOTAL OF          5 INNER ITERATIONS.
    ------------------------------------------------

 NO OUTPUT CONTROL FOR STRESS PERIOD   37   TIME STEP   28
 
 SOLVING FOR HEAD 
                                                   Max.-Head-Change                         Max.-Flux-Residual
  Residual-Control   Outer-Iter.   Inner-Iter.     Column Row Layer    Maximum-Head-Change  Column Row Layer    Maximum-Flux-Residual          L2-NORM 
          0                 1           2             3    7     1       0.3632959069E-02       4    5    1         0.9924291091E-01      0.4597397916E+00
          0                 2           2             3    7     1      -0.3533880141E-03       4    5    1        -0.9924297467E-02      0.4597160838E-01
          0                 3           1             3    7     1       0.2406443889E-04       4    5    1         0.6947010654E-03      0.3217873538E-02

    ------------------------------------------------
       NWT REQUIRED            3 OUTER ITERATIONS 
       AND A TOTAL OF          5 INNER ITERATIONS.
    ------------------------------------------------

 NO OUTPUT CONTROL FOR STRESS PERIOD   37   TIME STEP   29
 
 SOLVING FOR HEAD 
                                                   Max.-Head-Change                         Max.-Flux-Residual
  Residual-Control   Outer-Iter.   Inner-Iter.     Column Row Layer    Maximum-Head-Change  Column Row Layer    Maximum-Flux-Residual          L2-NORM 
          0                 1           2             3    7     1       0.3584867801E-02       4    5    1         0.9797479591E-01      0.4565854885E+00
          0                 2           2             3    7     1      -0.3487100434E-03       4    5    1        -0.9797485646E-02      0.4565635962E-01
          0                 3           1             3    7     1       0.2374588590E-04       4    5    1         0.6858242282E-03      0.3195745017E-02

    ------------------------------------------------
       NWT REQUIRED            3 OUTER ITERATIONS 
       AND A TOTAL OF          5 INNER ITERATIONS.
    ------------------------------------------------

 NO OUTPUT CONTROL FOR STRESS PERIOD   37   TIME STEP   30



 STREAM LISTING     PERIOD     37   STEP       30

 LAYER ROW COL. STREAM  RCH.  FLOW INTO     FLOW TO   FLOW OUT OF   OVRLND.     DIRECT     STREAM       STREAM     STREAM     STREAM   STREAMBED  STREAMBED
                SEG.NO.  NO.  STRM. RCH.    AQUIFER    STRM. RCH.    RUNOFF     PRECIP       ET          HEAD       DEPTH      WIDTH   CONDCTNC.   GRADIENT

   1    1    1     1     1    1.7249E+01  2.0269E-01   1.7047E+01  0.000E+00  0.000E+00  0.000E+00  1.09410E+03  1.052E+00  1.112E+01  5.002E-02  1.351E+00
   1    2    2     1     2    1.7047E+01  3.1257E-01   1.6734E+01  0.000E+00  0.000E+00  0.000E+00  1.08911E+03  1.047E+00  1.103E+01  7.723E-02  1.349E+00
   1    3    3     1     3    1.6734E+01  2.6529E-01   1.6469E+01  0.000E+00  0.000E+00  0.000E+00  1.08346E+03  1.042E+00  1.094E+01  6.563E-02  1.347E+00
   1    3    4     1     4    1.6469E+01  2.4324E-01   1.6226E+01  0.000E+00  0.000E+00  0.000E+00  1.07845E+03  1.038E+00  1.085E+01  6.024E-02  1.346E+00
   1    4    5     2     1    1.4226E+01  3.0073E-01   1.3925E+01  0.000E+00  0.000E+00  0.000E+00  1.07279E+03  8.555E-01  1.200E+01  7.800E-02  1.285E+00
   1    5    6     2     2    1.3925E+01  2.3075E-01   1.3694E+01  0.000E+00  0.000E+00  0.000E+00  1.06736E+03  8.458E-01  1.200E+01  6.000E-02  1.282E+00
   1    6    6     2     3    1.3694E+01  2.3024E-01   1.3464E+01  0.000E+00  0.000E+00  0.000E+00  1.06263E+03  8.373E-01  1.200E+01  6.000E-02  1.279E+00
   1    7    6     2     4    1.3464E+01  2.2972E-01   1.3234E+01  0.000E+00  0.000E+00  0.000E+00  1.05790E+03  8.287E-01  1.200E+01  6.000E-02  1.276E+00
   1    8    6     2     5    1.3234E+01  2.2921E-01   1.3005E+01  0.000E+00  0.000E+00  0.000E+00  1.05318E+03  8.202E-01  1.200E+01  6.000E-02  1.273E+00
   1    3    5     3     1    2.0000E+00  2.8252E-01   1.7175E+00  0.000E+00  0.000E+00  0.000E+00  1.07555E+03  1.909E+00  9.636E+00  7.227E-02  1.955E+00
   1    3    6     3     2    1.7175E+00  2.4905E-01   1.4684E+00  0.000E+00  0.000E+00  0.000E+00  1.07264E+03  1.727E+00  8.909E+00  6.682E-02  1.864E+00
   1    3    7     3     3    1.4684E+00  1.9718E-01   1.2712E+00  0.000E+00  0.000E+00  0.000E+00  1.06987E+03  1.555E+00  8.218E+00  5.547E-02  1.777E+00
   1    4    8     3     4    1.2712E+00  2.2567E-01   1.0456E+00  0.000E+00  0.000E+00  0.000E+00  1.06682E+03  1.364E+00  7.455E+00  6.709E-02  1.682E+00
   1    5    8     3     5    1.0456E+00  1.5790E-01   8.8768E-01  0.000E+00  0.000E+00  0.000E+00  1.06362E+03  1.164E+00  6.655E+00  4.991E-02  1.582E+00
   1    6    8     3     6    8.8768E-01  5.5980E-02   8.3170E-01  0.000E+00  0.000E+00  0.000E+00  1.06158E+03  1.036E+00  6.145E+00  1.844E-02  1.518E+00
   1    5   10     4     1    1.0000E+01  9.0919E-02   9.9091E+00  0.000E+00  0.000E+00  0.000E+00  1.07836E+03  6.368E-01  1.000E+01  2.500E-02  1.212E+00
   1    5    9     4     2    9.9091E+00  1.8158E-01   9.7275E+00  0.000E+00  0.000E+00  0.000E+00  1.07154E+03  6.315E-01  1.000E+01  5.000E-02  1.211E+00
   1    6    8     4     3    9.7275E+00  1.2689E-01   9.6006E+00  0.000E+00  0.000E+00  0.000E+00  1.06381E+03  6.256E-01  1.000E+01  3.500E-02  1.209E+00
   1    6    8     5     1    1.0432E+01  2.2686E-01   1.0205E+01  0.000E+00  0.000E+00  0.000E+00  1.05868E+03  6.790E-01  1.542E+01  6.166E-02  1.226E+00
   1    7    7     5     2    1.0205E+01  2.7894E-01   9.9265E+00  0.000E+00  0.000E+00  0.000E+00  1.05417E+03  6.732E-01  1.519E+01  7.594E-02  1.224E+00
   1    8    7     5     3    9.9265E+00  1.9221E-01   9.7343E+00  0.000E+00  0.000E+00  0.000E+00  1.04992E+03  6.676E-01  1.497E+01  5.241E-02  1.223E+00
   1    8    6     5     4    9.7343E+00  1.3577E-01   9.5985E+00  0.000E+00  0.000E+00  0.000E+00  1.04691E+03  6.637E-01  1.482E+01  3.706E-02  1.221E+00
   1    9    6     6     1    2.2604E+01  2.4874E-01   2.2355E+01  0.000E+00  0.000E+00  0.000E+00  1.04387E+03  1.146E+00  1.200E+01  6.000E-02  1.382E+00
   1   10    7     6     2    2.2355E+01  2.4828E-01   2.2107E+01  0.000E+00  0.000E+00  0.000E+00  1.03932E+03  1.138E+00  1.200E+01  6.000E-02  1.379E+00
   1   11    7     6     3    2.2107E+01  2.4782E-01   2.1859E+01  0.000E+00  0.000E+00  0.000E+00  1.03477E+03  1.130E+00  1.200E+01  6.000E-02  1.377E+00
   1   12    7     6     4    2.1859E+01  2.4736E-01   2.1611E+01  0.000E+00  0.000E+00  0.000E+00  1.03021E+03  1.123E+00  1.200E+01  6.000E-02  1.374E+00
   1   13    7     6     5    2.1611E+01  1.8753E-03   2.1610E+01  0.000E+00  0.000E+00  0.000E+00  1.02703E+03  1.119E+00  1.200E+01  2.400E-02  2.605E-02
   1   14    9     7     1    1.5000E+02  1.3470E+00   1.4865E+02  0.000E+00  0.000E+00  0.000E+00  1.03987E+03  2.288E+00  5.529E+01  5.593E-01  8.028E-01
   1   13    8     7     2    1.4865E+02  1.8732E+00   1.4678E+02  0.000E+00  0.000E+00  0.000E+00  1.03478E+03  2.279E+00  5.526E+01  6.148E-01  1.016E+00
   1   13    7     7     3    1.4678E+02  1.5299E+00   1.4525E+02  0.000E+00  0.000E+00  0.000E+00  1.02969E+03  2.270E+00  5.522E+01  5.584E-01  9.132E-01
   1   13    6     8     1    1.6686E+02  9.6113E-01   1.6590E+02  0.000E+00  0.000E+00  0.000E+00  1.02480E+03  2.928E+00  4.246E+01  4.327E-01  7.404E-01
   1   13    5     8     2    1.6590E+02  2.1069E-01   1.6569E+02  0.000E+00  0.000E+00  0.000E+00  1.01855E+03  2.925E+00  4.241E+01  4.321E-01  1.625E-01
   1   13    4     8     3    1.6569E+02 -2.3245E+00   1.6801E+02  0.000E+00  0.000E+00  0.000E+00  1.01231E+03  2.932E+00  4.251E+01  4.332E+00 -1.789E-01
   1   13    3     8     4    1.6801E+02 -3.5876E+00   1.7160E+02  0.000E+00  0.000E+00  0.000E+00  1.00608E+03  2.951E+00  4.279E+01  4.360E+00 -2.743E-01
   1   13    2     8     5    1.7160E+02 -2.5638E+00   1.7416E+02  0.000E+00  0.000E+00  0.000E+00  9.99846E+02  2.971E+00  4.308E+01  4.390E+00 -1.947E-01
   1   13    1     8     6    1.7416E+02 -1.9843E+00   1.7615E+02  0.000E+00  0.000E+00  0.000E+00  9.94860E+02  2.985E+00  4.329E+01  2.647E+00 -2.499E-01
   1    8    6     9     1    0.0000E+00  0.0000E+00   0.0000E+00  0.000E+00  0.000E+00  0.000E+00  1.07875E+03  0.000E+00  4.000E+00  0.000E+00  1.000E+00
   1    8    5     9     2    0.0000E+00  0.0000E+00   0.0000E+00  0.000E+00  0.000E+00  0.000E+00  1.07825E+03  0.000E+00  4.000E+00  0.000E+00  1.000E+00





UNSATURATED ZONE PACKAGE VOLUMETRIC BUDGET FOR  TIME STEP    30 STRESS PERIOD   37
  ------------------------------------------------------------------------------



     CUMULATIVE VOLUMES      L**3       RATES FOR THIS TIME STEP      L**3/T
     ------------------                 ------------------------

           IN:                                      IN:
           ---                                      ---
        INFILTRATION =  1510647274.2946          INFILTRATION =           0.8475

          OUT:                                     OUT:
          ----                                     ----
              UZF ET =  1283482037.7561                UZF ET =           0.7500
        UZF RECHARGE =    54028827.0841          UZF RECHARGE =       0.0000E+00

            IN - OUT =   173136409.4544              IN - OUT =       9.7500E-02

          STORAGE:                                 STORAGE:
          --------                                 --------
      STORAGE CHANGE =   173291521.8888        STORAGE CHANGE =       9.7500E-02

 PERCENT DISCREPANCY IS DIFFERENCE BETWEEN IN-OUT MINUS CHANGE IN STORAGE
 DIVIDED BY THE AVERAGE OF IN AND OUT TIMES 100

 PERCENT DISCREPANCY =          -0.00     PERCENT DISCREPANCY =           0.00






1
  VOLUMETRIC BUDGET FOR AGRICULTURAL FIELDS AT  END OF TIME STEP   30, STRESS PERIOD  37
  ------------------------------------------------------------------------------

     CUMULATIVE VOLUMES      L**3       RATES FOR THIS TIME STEP      L**3/T
     ------------------                 ------------------------

           IN:                                      IN:
           ---                                      ---
           AG WELLS      =   463900064.0000             AG WELLS      =           0.0000
      DIVERSION SEGMENTS =   966468928.0000        DIVERSION SEGMENTS =           0.0000
           GW IRRIGATION =           0.0000             GW IRRIGATION =           0.0000
           SW IRRIGATION =           0.0000             SW IRRIGATION =           0.0000
        SYSTEM LOSSES GW =           0.0000          SYSTEM LOSSES GW =           0.0000
        SYSTEM LOSSES SW =           0.0000          SYSTEM LOSSES SW =           0.0000

                TOTAL IN =  1430369024.0000                  TOTAL IN =           0.0000

          OUT:                                     OUT:
          ----                                     ----
           AG WELLS      =           0.0000             AG WELLS      =           0.0000
      DIVERSION SEGMENTS =           0.0000        DIVERSION SEGMENTS =           0.0000
           GW IRRIGATION =   463900064.0000             GW IRRIGATION =           0.0000
           SW IRRIGATION =   966488192.0000             SW IRRIGATION =           0.0000
        SYSTEM LOSSES GW =           0.0000          SYSTEM LOSSES GW =           0.0000
        SYSTEM LOSSES SW =           0.0000          SYSTEM LOSSES SW =           0.0000

               TOTAL OUT =  1430388224.0000                 TOTAL OUT =           0.0000

                IN - OUT =      -19200.0000                  IN - OUT =           0.0000

     PERCENT DISCREPANCY =          -0.00         PERCENT DISCREPANCY =           0.00



1
  VOLUMETRIC BUDGET FOR ENTIRE MODEL AT END OF TIME STEP   30, STRESS PERIOD  37
  ------------------------------------------------------------------------------

     CUMULATIVE VOLUMES      L**3       RATES FOR THIS TIME STEP      L**3/T
     ------------------                 ------------------------

           IN:                                      IN:
           ---                                      ---
             STORAGE     =   771751424.0000               STORAGE     =           1.2808
       CONSTANT HEAD     =           0.0000         CONSTANT HEAD     =           0.0000
     HEAD DEP BOUNDS     =    27096072.0000       HEAD DEP BOUNDS     =           0.2865
      STREAM LEAKAGE     =  1136293888.0000        STREAM LEAKAGE     =          11.5619
        UZF RECHARGE     =    54028828.0000          UZF RECHARGE     =           0.0000
               GW ET     =           0.0000                 GW ET     =           0.0000
     SURFACE LEAKAGE     =           0.0000       SURFACE LEAKAGE     =           0.0000
           AG WELLS      =           0.0000             AG WELLS      =           0.0000

                TOTAL IN =  1989170176.0000                  TOTAL IN =          13.1292

          OUT:                                     OUT:
          ----                                     ----
             STORAGE     =   480162880.0000               STORAGE     =           2.3802
       CONSTANT HEAD     =           0.0000         CONSTANT HEAD     =           0.0000
     HEAD DEP BOUNDS     =    27541660.0000       HEAD DEP BOUNDS     =           0.2892
      STREAM LEAKAGE     =  1014751424.0000        STREAM LEAKAGE     =          10.4601
        UZF RECHARGE     =           0.0000          UZF RECHARGE     =           0.0000
               GW ET     =     2818101.5000                 GW ET     =           0.0000
     SURFACE LEAKAGE     =           0.0000       SURFACE LEAKAGE     =           0.0000
           AG WELLS      =   463900064.0000             AG WELLS      =           0.0000

               TOTAL OUT =  1989174016.0000                 TOTAL OUT =          13.1295

                IN - OUT =       -3840.0000                  IN - OUT =      -3.0994E-04

     PERCENT DISCREPANCY =          -0.00         PERCENT DISCREPANCY =          -0.00






         TIME SUMMARY AT END OF TIME STEP   30 IN STRESS PERIOD   37
                    SECONDS     MINUTES      HOURS       DAYS        YEARS
                    -----------------------------------------------------------
   TIME STEP LENGTH  87667.      1461.1      24.352      1.0147     2.77799E-03
 STRESS PERIOD TIME 2.63000E+06  43833.      730.56      30.440     8.33397E-02
         TOTAL TIME 9.47660E+07 1.57943E+06  26324.      1096.8      3.0030    
1
1
                            STRESS PERIOD NO.   38, LENGTH =   2630000.    
                            -----------------------------------------------

                              NUMBER OF TIME STEPS =    30

                               MULTIPLIER FOR DELT =     1.000

                            INITIAL TIME STEP SIZE =   87666.66    

 REUSING NON-PARAMETER GHB CELLS FROM LAST STRESS PERIOD

      2 GHB CELLS

 REUSING STREAM SEGMENT DATA FROM LAST STRESS PERIOD



            AREAL INFILTRATION RATE
 READING ON UNIT   19 WITH FORMAT: (FREE)              

            1           2           3           4           5           6           7           8           9          10
 ........................................................................................................................
   1   1.0000E-10  2.0000E-10   0.000       0.000       0.000       0.000       0.000       0.000       0.000       0.000    
   2   2.0000E-10  1.0000E-10  2.0000E-10   0.000       0.000      8.0000E-10  8.0000E-10  5.0000E-10   0.000       0.000    
   3    0.000      5.0000E-10  1.0000E-10  1.0000E-10  8.0000E-10  8.0000E-10  5.0000E-10  5.0000E-10   0.000       0.000    
   4   8.0000E-10  5.0000E-10  1.0000E-10  1.0000E-10  1.0000E-10  1.0000E-10  1.0000E-10  1.0000E-10  2.0000E-10   0.000    
   5   8.0000E-10  5.0000E-10  1.0000E-10  1.0000E-10  1.0000E-10  1.0000E-10  1.0000E-10  1.0000E-10  1.0000E-10  1.0000E-10
   6   8.0000E-10  5.0000E-10  5.0000E-10  2.0000E-10  2.0000E-10  1.0000E-10  1.0000E-10  1.0000E-10  1.0000E-10  5.0000E-10
   7   8.0000E-10  5.0000E-10  5.0000E-10  2.0000E-10  2.0000E-10  1.0000E-10  1.0000E-10  2.0000E-10  2.0000E-10   0.000    
   8    0.000      5.0000E-10  5.0000E-10  2.0000E-10  2.0000E-10  1.0000E-10  1.0000E-10  2.0000E-10  5.0000E-10   0.000    
   9    0.000      5.0000E-10  5.0000E-10  2.0000E-10  2.0000E-10  1.0000E-10  1.0000E-10  2.0000E-10  5.0000E-10   0.000    
  10    0.000      5.0000E-10  5.0000E-10  2.0000E-10  2.0000E-10  1.0000E-10  1.0000E-10  2.0000E-10  5.0000E-10  8.0000E-10
  11    0.000      1.0000E-10  1.0000E-10  1.0000E-10  1.0000E-10  1.0000E-10  1.0000E-10  2.0000E-10  5.0000E-10   0.000    
  12   1.0000E-10  1.0000E-10  1.0000E-10  1.0000E-10  1.0000E-10  1.0000E-10  1.0000E-10  1.0000E-10  2.0000E-10   0.000    
  13   1.0000E-10  1.0000E-10  2.0000E-10  2.0000E-10  2.0000E-10  2.0000E-10  2.0000E-10  1.0000E-10  1.0000E-10   0.000    
  14    0.000      2.0000E-10  5.0000E-10  5.0000E-10  5.0000E-10  5.0000E-10  5.0000E-10  2.0000E-10  1.0000E-10   0.000    
  15    0.000       0.000      8.0000E-10  8.0000E-10  8.0000E-10  8.0000E-10   0.000       0.000       0.000       0.000    

                  ET RATE =  5.000000E-10

 USING ET EXTINCTION DEPTH FROM PREVIOUS STRESS PERIOD. CURRENT PERIOD IS:      38

 USING EXTINCTION WATER CONTENT FROM PREVIOUS STRESS PERIOD. CURRENT PERIOD IS:      38

 USING AIR ENTRY PRESSURE FROM PREVIOUS STRESS PERIOD. CURRENT PERIOD IS:      38

 USING ROOT PRESSURE HEAD FROM PREVIOUS STRESS PERIOD. CURRENT PERIOD IS:      38

 USING ROOT ACTIVITY FROM PREVIOUS STRESS PERIOD. CURRENT PERIOD IS:      38

 PROCESSING AG STRESS PERIOD DATA

 READING AG STRESS PERIOD DATA

 READING IRRIGATION SEGMENT

 READING IRRIGATION WELL

 READING SUPPLEMENTAL WELL

 END PROCESSING AG STRESS PERIOD DATA OPTIONS
 
 SOLVING FOR HEAD 
                                                   Max.-Head-Change                         Max.-Flux-Residual
  Residual-Control   Outer-Iter.   Inner-Iter.     Column Row Layer    Maximum-Head-Change  Column Row Layer    Maximum-Flux-Residual          L2-NORM 
          0                 1           2             3    7     1       0.3537555084E-02       4    5    1         0.9675697448E-01      0.4535343023E+00
          0                 2           2             3    7     1      -0.3441078054E-03       4    5    1        -0.9675703216E-02      0.4535118264E-01
          0                 3           1             3    7     1       0.2343249072E-04       4    5    1         0.6772994727E-03      0.3174210410E-02

    ------------------------------------------------
       NWT REQUIRED            3 OUTER ITERATIONS 
       AND A TOTAL OF          5 INNER ITERATIONS.
    ------------------------------------------------

 NO OUTPUT CONTROL FOR STRESS PERIOD   38   TIME STEP    1
 
 SOLVING FOR HEAD 
                                                   Max.-Head-Change                         Max.-Flux-Residual
  Residual-Control   Outer-Iter.   Inner-Iter.     Column Row Layer    Maximum-Head-Change  Column Row Layer    Maximum-Flux-Residual          L2-NORM 
          0                 1           2             3    7     1       0.3491978845E-02       2    2    1        -0.1083271371E+00      0.4584676162E+00
          0                 2           2             3    7     1      -0.3396744782E-03       2    2    1         0.1083271781E-01      0.4581837084E-01
          0                 3           1             3    7     1       0.2313059621E-04       2    2    1        -0.7582905491E-03      0.3204618239E-02

    ------------------------------------------------
       NWT REQUIRED            3 OUTER ITERATIONS 
       AND A TOTAL OF          5 INNER ITERATIONS.
    ------------------------------------------------

 NO OUTPUT CONTROL FOR STRESS PERIOD   38   TIME STEP    2
 
 SOLVING FOR HEAD 
                                                   Max.-Head-Change                         Max.-Flux-Residual
  Residual-Control   Outer-Iter.   Inner-Iter.     Column Row Layer    Maximum-Head-Change  Column Row Layer    Maximum-Flux-Residual          L2-NORM 
          0                 1           2             3    7     1       0.3447105965E-02       2    2    1        -0.1252464377E+00      0.4719404045E+00
          0                 2           2             3    7     1      -0.3353095692E-03       2    2    1         0.1252464554E-01      0.4712531778E-01
          0                 3           1             3    7     1       0.2283336015E-04       2    2    1        -0.8767255404E-03      0.3291935858E-02

    ------------------------------------------------
       NWT REQUIRED            3 OUTER ITERATIONS 
       AND A TOTAL OF          5 INNER ITERATIONS.
    ------------------------------------------------

 NO OUTPUT CONTROL FOR STRESS PERIOD   38   TIME STEP    3
 
 SOLVING FOR HEAD 
                                                   Max.-Head-Change                         Max.-Flux-Residual
  Residual-Control   Outer-Iter.   Inner-Iter.     Column Row Layer    Maximum-Head-Change  Column Row Layer    Maximum-Flux-Residual          L2-NORM 
          0                 1           2             3    7     1       0.3403406447E-02       2    2    1        -0.1244962276E+00      0.4669824575E+00
          0                 2           2             3    7     1      -0.3310587957E-03       2    2    1         0.1244962464E-01      0.4662220606E-01
          0                 3           1             3    7     1       0.2254389808E-04       2    2    1        -0.8714740721E-03      0.3256366546E-02

    ------------------------------------------------
       NWT REQUIRED            3 OUTER ITERATIONS 
       AND A TOTAL OF          5 INNER ITERATIONS.
    ------------------------------------------------

 NO OUTPUT CONTROL FOR STRESS PERIOD   38   TIME STEP    4
 
 SOLVING FOR HEAD 
                                                   Max.-Head-Change                         Max.-Flux-Residual
  Residual-Control   Outer-Iter.   Inner-Iter.     Column Row Layer    Maximum-Head-Change  Column Row Layer    Maximum-Flux-Residual          L2-NORM 
          0                 1           2             3    7     1       0.3360357578E-02       2    2    1        -0.1237556741E+00      0.4623359187E+00
          0                 2           2             3    7     1      -0.3268713132E-03       2    2    1         0.1237556939E-01      0.4616698069E-01
          0                 3           1             3    7     1       0.2225874584E-04       2    2    1        -0.8662902271E-03      0.3225934389E-02

    ------------------------------------------------
       NWT REQUIRED            3 OUTER ITERATIONS 
       AND A TOTAL OF          5 INNER ITERATIONS.
    ------------------------------------------------

 NO OUTPUT CONTROL FOR STRESS PERIOD   38   TIME STEP    5
 
 SOLVING FOR HEAD 
                                                   Max.-Head-Change                         Max.-Flux-Residual
  Residual-Control   Outer-Iter.   Inner-Iter.     Column Row Layer    Maximum-Head-Change  Column Row Layer    Maximum-Flux-Residual          L2-NORM 
          0                 1           2             3    7     1       0.3318426557E-02       2    2    1        -0.1230246094E+00      0.4580149080E+00
          0                 2           2             3    7     1      -0.3227925663E-03       2    2    1         0.1230246301E-01      0.4574371429E-01
          0                 3           1             3    7     1       0.2198099863E-04       2    2    1        -0.8611727632E-03      0.3196613084E-02

    ------------------------------------------------
       NWT REQUIRED            3 OUTER ITERATIONS 
       AND A TOTAL OF          5 INNER ITERATIONS.
    ------------------------------------------------

 NO OUTPUT CONTROL FOR STRESS PERIOD   38   TIME STEP    6
 
 SOLVING FOR HEAD 
                                                   Max.-Head-Change                         Max.-Flux-Residual
  Residual-Control   Outer-Iter.   Inner-Iter.     Column Row Layer    Maximum-Head-Change  Column Row Layer    Maximum-Flux-Residual          L2-NORM 
          0                 1           2             3    7     1       0.3277585777E-02       2    2    1        -0.1222983055E+00      0.4539809107E+00
          0                 2           2             3    7     1      -0.3188198705E-03       2    2    1         0.1222983272E-01      0.4534738204E-01
          0                 3           1             3    7     1       0.2171047233E-04       2    2    1        -0.8560886356E-03      0.3169689865E-02

    ------------------------------------------------
       NWT REQUIRED            3 OUTER ITERATIONS 
       AND A TOTAL OF          5 INNER ITERATIONS.
    ------------------------------------------------

 NO OUTPUT CONTROL FOR STRESS PERIOD   38   TIME STEP    7
 
 SOLVING FOR HEAD 
                                                   Max.-Head-Change                         Max.-Flux-Residual
  Residual-Control   Outer-Iter.   Inner-Iter.     Column Row Layer    Maximum-Head-Change  Column Row Layer    Maximum-Flux-Residual          L2-NORM 
          0                 1           2             3    7     1       0.3237312465E-02       2    2    1        -0.1215857855E+00      0.4501964187E+00
          0                 2           2             3    7     1      -0.3149023734E-03       2    2    1         0.1215858078E-01      0.4497531144E-01
          0                 3           1             3    7     1       0.2144370534E-04       2    2    1        -0.8511010048E-03      0.3144172547E-02

    ------------------------------------------------
       NWT REQUIRED            3 OUTER ITERATIONS 
       AND A TOTAL OF          5 INNER ITERATIONS.
    ------------------------------------------------

 NO OUTPUT CONTROL FOR STRESS PERIOD   38   TIME STEP    8
 
 SOLVING FOR HEAD 
                                                   Max.-Head-Change                         Max.-Flux-Residual
  Residual-Control   Outer-Iter.   Inner-Iter.     Column Row Layer    Maximum-Head-Change  Column Row Layer    Maximum-Flux-Residual          L2-NORM 
          0                 1           2             3    7     1       0.3198075192E-02       2    2    1        -0.1208776897E+00      0.4466214814E+00
          0                 2           2             3    7     1      -0.3110856546E-03       2    2    1         0.1208777130E-01      0.4462325886E-01
          0                 3           1             3    7     1       0.2118380069E-04       2    2    1        -0.8461443273E-03      0.3120109929E-02

    ------------------------------------------------
       NWT REQUIRED            3 OUTER ITERATIONS 
       AND A TOTAL OF          5 INNER ITERATIONS.
    ------------------------------------------------

 NO OUTPUT CONTROL FOR STRESS PERIOD   38   TIME STEP    9
 
 SOLVING FOR HEAD 
                                                   Max.-Head-Change                         Max.-Flux-Residual
  Residual-Control   Outer-Iter.   Inner-Iter.     Column Row Layer    Maximum-Head-Change  Column Row Layer    Maximum-Flux-Residual          L2-NORM 
          0                 1           2             3    7     1       0.3159847223E-02       2    2    1        -0.1201784815E+00      0.4432650791E+00
          0                 2           2             3    7     1      -0.3073671141E-03       2    2    1         0.1201785056E-01      0.4429266354E-01
          0                 3           1             3    7     1       0.2093058159E-04       2    2    1        -0.8412498656E-03      0.3097563445E-02

    ------------------------------------------------
       NWT REQUIRED            3 OUTER ITERATIONS 
       AND A TOTAL OF          5 INNER ITERATIONS.
    ------------------------------------------------

 NO OUTPUT CONTROL FOR STRESS PERIOD   38   TIME STEP   10
 
 SOLVING FOR HEAD 
                                                   Max.-Head-Change                         Max.-Flux-Residual
  Residual-Control   Outer-Iter.   Inner-Iter.     Column Row Layer    Maximum-Head-Change  Column Row Layer    Maximum-Flux-Residual          L2-NORM 
          0                 1           2             3    7     1       0.3122599011E-02       2    2    1        -0.1194880271E+00      0.4400726085E+00
          0                 2           2             3    7     1      -0.3037438764E-03       2    2    1         0.1194880521E-01      0.4397726639E-01
          0                 3           1             3    7     1       0.2068385207E-04       2    2    1        -0.8364167031E-03      0.3075634029E-02

    ------------------------------------------------
       NWT REQUIRED            3 OUTER ITERATIONS 
       AND A TOTAL OF          5 INNER ITERATIONS.
    ------------------------------------------------

 NO OUTPUT CONTROL FOR STRESS PERIOD   38   TIME STEP   11
 
 SOLVING FOR HEAD 
                                                   Max.-Head-Change                         Max.-Flux-Residual
  Residual-Control   Outer-Iter.   Inner-Iter.     Column Row Layer    Maximum-Head-Change  Column Row Layer    Maximum-Flux-Residual          L2-NORM 
          0                 1           2             3    7     1       0.3085813591E-02       2    2    1        -0.1188061779E+00      0.4370411479E+00
          0                 2           2             3    7     1      -0.3001656570E-03       2    2    1         0.1188062036E-01      0.4367789414E-01
          0                 3           1             3    7     1       0.2044018889E-04       2    2    1        -0.8316437773E-03      0.3055012914E-02

    ------------------------------------------------
       NWT REQUIRED            3 OUTER ITERATIONS 
       AND A TOTAL OF          5 INNER ITERATIONS.
    ------------------------------------------------

 NO OUTPUT CONTROL FOR STRESS PERIOD   38   TIME STEP   12
 
 SOLVING FOR HEAD 
                                                   Max.-Head-Change                         Max.-Flux-Residual
  Residual-Control   Outer-Iter.   Inner-Iter.     Column Row Layer    Maximum-Head-Change  Column Row Layer    Maximum-Flux-Residual          L2-NORM 
          0                 1           2             3    7     1       0.3049963734E-02       2    2    1        -0.1181327860E+00      0.4341583502E+00
          0                 2           2             3    7     1      -0.2966784412E-03       2    2    1         0.1181328124E-01      0.4339240840E-01
          0                 3           1             3    7     1       0.2020272182E-04       2    2    1        -0.8269300232E-03      0.3035353677E-02

    ------------------------------------------------
       NWT REQUIRED            3 OUTER ITERATIONS 
       AND A TOTAL OF          5 INNER ITERATIONS.
    ------------------------------------------------

 NO OUTPUT CONTROL FOR STRESS PERIOD   38   TIME STEP   13
 
 SOLVING FOR HEAD 
                                                   Max.-Head-Change                         Max.-Flux-Residual
  Residual-Control   Outer-Iter.   Inner-Iter.     Column Row Layer    Maximum-Head-Change  Column Row Layer    Maximum-Flux-Residual          L2-NORM 
          0                 1           2             3    7     1       0.3015024479E-02       2    2    1        -0.1174676861E+00      0.4314082786E+00
          0                 2           2             3    7     1      -0.2932798028E-03       2    2    1         0.1174677132E-01      0.4312001120E-01
          0                 3           1             3    7     1       0.1997128707E-04       2    2    1        -0.8222743280E-03      0.3016284991E-02

    ------------------------------------------------
       NWT REQUIRED            3 OUTER ITERATIONS 
       AND A TOTAL OF          5 INNER ITERATIONS.
    ------------------------------------------------

 NO OUTPUT CONTROL FOR STRESS PERIOD   38   TIME STEP   14
 
 SOLVING FOR HEAD 
                                                   Max.-Head-Change                         Max.-Flux-Residual
  Residual-Control   Outer-Iter.   Inner-Iter.     Column Row Layer    Maximum-Head-Change  Column Row Layer    Maximum-Flux-Residual          L2-NORM 
          0                 1           2             3    7     1       0.2980478459E-02       2    2    1        -0.1168107756E+00      0.4287632781E+00
          0                 2           2             3    7     1      -0.2899194157E-03       2    2    1         0.1168108037E-01      0.4285842934E-01
          0                 3           1             3    7     1       0.1974245739E-04       2    2    1        -0.8176759626E-03      0.2998440508E-02

    ------------------------------------------------
       NWT REQUIRED            3 OUTER ITERATIONS 
       AND A TOTAL OF          5 INNER ITERATIONS.
    ------------------------------------------------

 NO OUTPUT CONTROL FOR STRESS PERIOD   38   TIME STEP   15
 
 SOLVING FOR HEAD 
                                                   Max.-Head-Change                         Max.-Flux-Residual
  Residual-Control   Outer-Iter.   Inner-Iter.     Column Row Layer    Maximum-Head-Change  Column Row Layer    Maximum-Flux-Residual          L2-NORM 
          0                 1           2             3    7     1       0.2946801931E-02       2    2    1        -0.1161618959E+00      0.4262229176E+00
          0                 2           2             3    7     1      -0.2866436058E-03       2    2    1         0.1161619243E-01      0.4260652007E-01
          0                 3           1             3    7     1       0.1951938621E-04       2    2    1        -0.8131338034E-03      0.2981538191E-02

    ------------------------------------------------
       NWT REQUIRED            3 OUTER ITERATIONS 
       AND A TOTAL OF          5 INNER ITERATIONS.
    ------------------------------------------------

 NO OUTPUT CONTROL FOR STRESS PERIOD   38   TIME STEP   16
 
 SOLVING FOR HEAD 
                                                   Max.-Head-Change                         Max.-Flux-Residual
  Residual-Control   Outer-Iter.   Inner-Iter.     Column Row Layer    Maximum-Head-Change  Column Row Layer    Maximum-Flux-Residual          L2-NORM 
          0                 1           2             3    7     1       0.2913974124E-02       2    2    1        -0.1155163291E+00      0.4237918005E+00
          0                 2           2             3    7     1      -0.2834503529E-03       2    2    1         0.1155163582E-01      0.4236536885E-01
          0                 3           1             3    7     1       0.1930193719E-04       2    2    1        -0.8086148382E-03      0.2964594807E-02

    ------------------------------------------------
       NWT REQUIRED            3 OUTER ITERATIONS 
       AND A TOTAL OF          5 INNER ITERATIONS.
    ------------------------------------------------

 NO OUTPUT CONTROL FOR STRESS PERIOD   38   TIME STEP   17
 
 SOLVING FOR HEAD 
                                                   Max.-Head-Change                         Max.-Flux-Residual
  Residual-Control   Outer-Iter.   Inner-Iter.     Column Row Layer    Maximum-Head-Change  Column Row Layer    Maximum-Flux-Residual          L2-NORM 
          0                 1           2             3    7     1       0.2881966663E-02       2    2    1        -0.1148831632E+00      0.4214449860E+00
          0                 2           2             3    7     1      -0.2803368992E-03       2    2    1         0.1148831928E-01      0.4213222620E-01
          0                 3           1             3    7     1       0.1908992267E-04       2    2    1        -0.8041826641E-03      0.2948205117E-02

    ------------------------------------------------
       NWT REQUIRED            3 OUTER ITERATIONS 
       AND A TOTAL OF          5 INNER ITERATIONS.
    ------------------------------------------------

 NO OUTPUT CONTROL FOR STRESS PERIOD   38   TIME STEP   18
 
 SOLVING FOR HEAD 
                                                   Max.-Head-Change                         Max.-Flux-Residual
  Residual-Control   Outer-Iter.   Inner-Iter.     Column Row Layer    Maximum-Head-Change  Column Row Layer    Maximum-Flux-Residual          L2-NORM 
          0                 1           2             3    7     1       0.2850270976E-02       2    2    1        -0.1142530422E+00      0.4191824193E+00
          0                 2           2             3    7     1      -0.2772537709E-03       2    2    1         0.1142530724E-01      0.4190721841E-01
          0                 3           1             3    7     1       0.1887997265E-04       2    2    1        -0.7997718145E-03      0.2932455079E-02

    ------------------------------------------------
       NWT REQUIRED            3 OUTER ITERATIONS 
       AND A TOTAL OF          5 INNER ITERATIONS.
    ------------------------------------------------

 NO OUTPUT CONTROL FOR STRESS PERIOD   38   TIME STEP   19
 
 SOLVING FOR HEAD 
                                                   Max.-Head-Change                         Max.-Flux-Residual
  Residual-Control   Outer-Iter.   Inner-Iter.     Column Row Layer    Maximum-Head-Change  Column Row Layer    Maximum-Flux-Residual          L2-NORM 
          0                 1           2             3    7     1       0.2819851358E-02       2    2    1        -0.1136350568E+00      0.4170005935E+00
          0                 2           2             3    7     1      -0.2742947695E-03       2    2    1         0.1136350877E-01      0.4169004757E-01
          0                 3           1             3    7     1       0.1867847542E-04       2    2    1        -0.7954459202E-03      0.2917311553E-02

    ------------------------------------------------
       NWT REQUIRED            3 OUTER ITERATIONS 
       AND A TOTAL OF          5 INNER ITERATIONS.
    ------------------------------------------------

 NO OUTPUT CONTROL FOR STRESS PERIOD   38   TIME STEP   20
 
 SOLVING FOR HEAD 
                                                   Max.-Head-Change                         Max.-Flux-Residual
  Residual-Control   Outer-Iter.   Inner-Iter.     Column Row Layer    Maximum-Head-Change  Column Row Layer    Maximum-Flux-Residual          L2-NORM 
          0                 1           2             3    7     1       0.2789698142E-02       2    2    1        -0.1130198594E+00      0.4148743352E+00
          0                 2           2             3    7     1      -0.2713616822E-03       2    2    1         0.1130198906E-01      0.4147872177E-01
          0                 3           1             3    7     1       0.1847874282E-04       2    2    1        -0.7911395539E-03      0.2902705728E-02

    ------------------------------------------------
       NWT REQUIRED            3 OUTER ITERATIONS 
       AND A TOTAL OF          5 INNER ITERATIONS.
    ------------------------------------------------

 NO OUTPUT CONTROL FOR STRESS PERIOD   38   TIME STEP   21
 
 SOLVING FOR HEAD 
                                                   Max.-Head-Change                         Max.-Flux-Residual
  Residual-Control   Outer-Iter.   Inner-Iter.     Column Row Layer    Maximum-Head-Change  Column Row Layer    Maximum-Flux-Residual          L2-NORM 
          0                 1           2             3    7     1       0.2759797830E-02       2    2    1        -0.1124119675E+00      0.4128240680E+00
          0                 2           2             3    7     1      -0.2684531948E-03       2    2    1         0.1124119993E-01      0.4127465616E-01
          0                 3           1             3    7     1       0.1828068540E-04       2    2    1        -0.7868843019E-03      0.2888492477E-02

    ------------------------------------------------
       NWT REQUIRED            3 OUTER ITERATIONS 
       AND A TOTAL OF          5 INNER ITERATIONS.
    ------------------------------------------------

 NO OUTPUT CONTROL FOR STRESS PERIOD   38   TIME STEP   22
 
 SOLVING FOR HEAD 
                                                   Max.-Head-Change                         Max.-Flux-Residual
  Residual-Control   Outer-Iter.   Inner-Iter.     Column Row Layer    Maximum-Head-Change  Column Row Layer    Maximum-Flux-Residual          L2-NORM 
          0                 1           2             3    7     1       0.2731124492E-02       2    2    1        -0.1118112537E+00      0.4108324457E+00
          0                 2           2             3    7     1      -0.2656640590E-03       2    2    1         0.1118112860E-01      0.4107625969E-01
          0                 3           1             3    7     1       0.1809075510E-04       2    2    1        -0.7826793029E-03      0.2874636082E-02

    ------------------------------------------------
       NWT REQUIRED            3 OUTER ITERATIONS 
       AND A TOTAL OF          5 INNER ITERATIONS.
    ------------------------------------------------

 NO OUTPUT CONTROL FOR STRESS PERIOD   38   TIME STEP   23
 
 SOLVING FOR HEAD 
                                                   Max.-Head-Change                         Max.-Flux-Residual
  Residual-Control   Outer-Iter.   Inner-Iter.     Column Row Layer    Maximum-Head-Change  Column Row Layer    Maximum-Flux-Residual          L2-NORM 
          0                 1           2             3    7     1       0.2702664632E-02       2    2    1        -0.1112175783E+00      0.4088903598E+00
          0                 2           2             3    7     1      -0.2628956892E-03       2    2    1         0.1112176108E-01      0.4088274197E-01
          0                 3           1             3    7     1       0.1790223939E-04       2    2    1        -0.7785235740E-03      0.2861227385E-02

    ------------------------------------------------
       NWT REQUIRED            3 OUTER ITERATIONS 
       AND A TOTAL OF          5 INNER ITERATIONS.
    ------------------------------------------------

 NO OUTPUT CONTROL FOR STRESS PERIOD   38   TIME STEP   24
 
 SOLVING FOR HEAD 
                                                   Max.-Head-Change                         Max.-Flux-Residual
  Residual-Control   Outer-Iter.   Inner-Iter.     Column Row Layer    Maximum-Head-Change  Column Row Layer    Maximum-Flux-Residual          L2-NORM 
          0                 1           2             3    7     1       0.2674899888E-02       2    2    1        -0.1106308455E+00      0.4070151897E+00
          0                 2           2             3    7     1      -0.2601949355E-03       2    2    1         0.1106308784E-01      0.4069596792E-01
          0                 3           1             3    7     1       0.1771832793E-04       2    2    1        -0.7744164466E-03      0.2848226653E-02

    ------------------------------------------------
       NWT REQUIRED            3 OUTER ITERATIONS 
       AND A TOTAL OF          5 INNER ITERATIONS.
    ------------------------------------------------

 NO OUTPUT CONTROL FOR STRESS PERIOD   38   TIME STEP   25
 
 SOLVING FOR HEAD 
                                                   Max.-Head-Change                         Max.-Flux-Residual
  Residual-Control   Outer-Iter.   Inner-Iter.     Column Row Layer    Maximum-Head-Change  Column Row Layer    Maximum-Flux-Residual          L2-NORM 
          0                 1           2             3    7     1       0.2647810828E-02       2    2    1        -0.1100509351E+00      0.4051808140E+00
          0                 2           2             3    7     1      -0.2575599066E-03       2    2    1         0.1100509686E-01      0.4051316619E-01
          0                 3           1             3    7     1       0.1753889172E-04       2    2    1        -0.7703570824E-03      0.2835483351E-02

    ------------------------------------------------
       NWT REQUIRED            3 OUTER ITERATIONS 
       AND A TOTAL OF          5 INNER ITERATIONS.
    ------------------------------------------------

 NO OUTPUT CONTROL FOR STRESS PERIOD   38   TIME STEP   26
 
 SOLVING FOR HEAD 
                                                   Max.-Head-Change                         Max.-Flux-Residual
  Residual-Control   Outer-Iter.   Inner-Iter.     Column Row Layer    Maximum-Head-Change  Column Row Layer    Maximum-Flux-Residual          L2-NORM 
          0                 1           2             3    7     1       0.2621379004E-02       2    2    1        -0.1094731549E+00      0.4034013063E+00
          0                 2           2             3    7     1      -0.2549888093E-03       2    2    1         0.1094731887E-01      0.4033559531E-01
          0                 3           1             3    7     1       0.1736380983E-04       2    2    1        -0.7663126205E-03      0.2823023624E-02

    ------------------------------------------------
       NWT REQUIRED            3 OUTER ITERATIONS 
       AND A TOTAL OF          5 INNER ITERATIONS.
    ------------------------------------------------

 NO OUTPUT CONTROL FOR STRESS PERIOD   38   TIME STEP   27
 
 SOLVING FOR HEAD 
                                                   Max.-Head-Change                         Max.-Flux-Residual
  Residual-Control   Outer-Iter.   Inner-Iter.     Column Row Layer    Maximum-Head-Change  Column Row Layer    Maximum-Flux-Residual          L2-NORM 
          0                 1           2             3    7     1       0.2595582681E-02       2    2    1        -0.1089066108E+00      0.4016549788E+00
          0                 2           2             3    7     1      -0.2524795289E-03       2    2    1         0.1089066448E-01      0.4016147292E-01
          0                 3           1             3    7     1       0.1719293623E-04       2    2    1        -0.7623467964E-03      0.2810922384E-02

    ------------------------------------------------
       NWT REQUIRED            3 OUTER ITERATIONS 
       AND A TOTAL OF          5 INNER ITERATIONS.
    ------------------------------------------------

 NO OUTPUT CONTROL FOR STRESS PERIOD   38   TIME STEP   28
 
 SOLVING FOR HEAD 
                                                   Max.-Head-Change                         Max.-Flux-Residual
  Residual-Control   Outer-Iter.   Inner-Iter.     Column Row Layer    Maximum-Head-Change  Column Row Layer    Maximum-Flux-Residual          L2-NORM 
          0                 1           2             3    7     1       0.2569917614E-02       2    2    1        -0.1083465339E+00      0.3999606112E+00
          0                 2           2             3    7     1      -0.2499830160E-03       2    2    1         0.1083465684E-01      0.3999240593E-01
          0                 3           1             3    7     1       0.1702293239E-04       2    2    1        -0.7584262654E-03      0.2809284522E-02

    ------------------------------------------------
       NWT REQUIRED            3 OUTER ITERATIONS 
       AND A TOTAL OF          5 INNER ITERATIONS.
    ------------------------------------------------

 NO OUTPUT CONTROL FOR STRESS PERIOD   38   TIME STEP   29
 
 SOLVING FOR HEAD 
                                                   Max.-Head-Change                         Max.-Flux-Residual
  Residual-Control   Outer-Iter.   Inner-Iter.     Column Row Layer    Maximum-Head-Change  Column Row Layer    Maximum-Flux-Residual          L2-NORM 
          0                 1           2             3    6     1       0.2545965556E-02       2    2    1        -0.1077882760E+00      0.3983069972E+00
          0                 2           2             3    6     1      -0.2476531363E-03       2    2    1         0.1077883109E-01      0.3982739722E-01
          0                 3           1             3    6     1       0.1686425953E-04       2    2    1        -0.7545184717E-03      0.2787595011E-02

    ------------------------------------------------
       NWT REQUIRED            3 OUTER ITERATIONS 
       AND A TOTAL OF          5 INNER ITERATIONS.
    ------------------------------------------------

 NO OUTPUT CONTROL FOR STRESS PERIOD   38   TIME STEP   30



 STREAM LISTING     PERIOD     38   STEP       30

 LAYER ROW COL. STREAM  RCH.  FLOW INTO     FLOW TO   FLOW OUT OF   OVRLND.     DIRECT     STREAM       STREAM     STREAM     STREAM   STREAMBED  STREAMBED
                SEG.NO.  NO.  STRM. RCH.    AQUIFER    STRM. RCH.    RUNOFF     PRECIP       ET          HEAD       DEPTH      WIDTH   CONDCTNC.   GRADIENT

   1    1    1     1     1    1.4250E+01  1.8168E-01   1.4068E+01  0.000E+00  0.000E+00  0.000E+00  1.09404E+03  9.953E-01  1.011E+01  4.547E-02  1.332E+00
   1    2    2     1     2    1.4068E+01  2.7999E-01   1.3788E+01  0.000E+00  0.000E+00  0.000E+00  1.08905E+03  9.906E-01  1.002E+01  7.016E-02  1.330E+00
   1    3    3     1     3    1.3788E+01  2.3744E-01   1.3550E+01  0.000E+00  0.000E+00  0.000E+00  1.08340E+03  9.852E-01  9.930E+00  5.958E-02  1.328E+00
   1    3    4     1     4    1.3550E+01  2.1755E-01   1.3333E+01  0.000E+00  0.000E+00  0.000E+00  1.07839E+03  9.805E-01  9.847E+00  5.465E-02  1.327E+00
   1    4    5     2     1    1.1333E+01  2.9214E-01   1.1041E+01  0.000E+00  0.000E+00  0.000E+00  1.07268E+03  7.454E-01  1.200E+01  7.800E-02  1.248E+00
   1    5    6     2     2    1.1041E+01  2.2410E-01   1.0817E+01  0.000E+00  0.000E+00  0.000E+00  1.06724E+03  7.350E-01  1.200E+01  6.000E-02  1.245E+00
   1    6    6     2     3    1.0817E+01  2.2356E-01   1.0593E+01  0.000E+00  0.000E+00  0.000E+00  1.06252E+03  7.259E-01  1.200E+01  6.000E-02  1.242E+00
   1    7    6     2     4    1.0593E+01  2.2301E-01   1.0370E+01  0.000E+00  0.000E+00  0.000E+00  1.05779E+03  7.168E-01  1.200E+01  6.000E-02  1.239E+00
   1    8    6     2     5    1.0370E+01  2.2246E-01   1.0148E+01  0.000E+00  0.000E+00  0.000E+00  1.05307E+03  7.076E-01  1.200E+01  6.000E-02  1.236E+00
   1    3    5     3     1    2.0000E+00  2.8252E-01   1.7175E+00  0.000E+00  0.000E+00  0.000E+00  1.07555E+03  1.909E+00  9.636E+00  7.227E-02  1.955E+00
   1    3    6     3     2    1.7175E+00  2.4905E-01   1.4684E+00  0.000E+00  0.000E+00  0.000E+00  1.07264E+03  1.727E+00  8.909E+00  6.682E-02  1.864E+00
   1    3    7     3     3    1.4684E+00  1.9718E-01   1.2712E+00  0.000E+00  0.000E+00  0.000E+00  1.06987E+03  1.555E+00  8.218E+00  5.547E-02  1.777E+00
   1    4    8     3     4    1.2712E+00  2.2567E-01   1.0456E+00  0.000E+00  0.000E+00  0.000E+00  1.06682E+03  1.364E+00  7.455E+00  6.709E-02  1.682E+00
   1    5    8     3     5    1.0456E+00  1.5790E-01   8.8768E-01  0.000E+00  0.000E+00  0.000E+00  1.06362E+03  1.164E+00  6.655E+00  4.991E-02  1.582E+00
   1    6    8     3     6    8.8768E-01  5.5980E-02   8.3170E-01  0.000E+00  0.000E+00  0.000E+00  1.06158E+03  1.036E+00  6.145E+00  1.844E-02  1.518E+00
   1    5   10     4     1    1.0000E+01  9.0919E-02   9.9091E+00  0.000E+00  0.000E+00  0.000E+00  1.07836E+03  6.368E-01  1.000E+01  2.500E-02  1.212E+00
   1    5    9     4     2    9.9091E+00  1.8158E-01   9.7275E+00  0.000E+00  0.000E+00  0.000E+00  1.07154E+03  6.315E-01  1.000E+01  5.000E-02  1.211E+00
   1    6    8     4     3    9.7275E+00  1.2689E-01   9.6006E+00  0.000E+00  0.000E+00  0.000E+00  1.06381E+03  6.256E-01  1.000E+01  3.500E-02  1.209E+00
   1    6    8     5     1    1.0432E+01  2.2686E-01   1.0205E+01  0.000E+00  0.000E+00  0.000E+00  1.05868E+03  6.790E-01  1.542E+01  6.166E-02  1.226E+00
   1    7    7     5     2    1.0205E+01  2.7894E-01   9.9265E+00  0.000E+00  0.000E+00  0.000E+00  1.05417E+03  6.732E-01  1.519E+01  7.594E-02  1.224E+00
   1    8    7     5     3    9.9265E+00  1.9221E-01   9.7343E+00  0.000E+00  0.000E+00  0.000E+00  1.04992E+03  6.676E-01  1.497E+01  5.241E-02  1.223E+00
   1    8    6     5     4    9.7343E+00  1.3577E-01   9.5985E+00  0.000E+00  0.000E+00  0.000E+00  1.04691E+03  6.637E-01  1.482E+01  3.706E-02  1.221E+00
   1    9    6     6     1    1.9746E+01  2.4336E-01   1.9503E+01  0.000E+00  0.000E+00  0.000E+00  1.04378E+03  1.056E+00  1.200E+01  6.000E-02  1.352E+00
   1   10    7     6     2    1.9503E+01  2.4289E-01   1.9260E+01  0.000E+00  0.000E+00  0.000E+00  1.03923E+03  1.048E+00  1.200E+01  6.000E-02  1.349E+00
   1   11    7     6     3    1.9260E+01  2.4241E-01   1.9018E+01  0.000E+00  0.000E+00  0.000E+00  1.03468E+03  1.040E+00  1.200E+01  6.000E-02  1.347E+00
   1   12    7     6     4    1.9018E+01  2.4194E-01   1.8776E+01  0.000E+00  0.000E+00  0.000E+00  1.03012E+03  1.032E+00  1.200E+01  6.000E-02  1.344E+00
   1   13    7     6     5    1.8776E+01 -1.1933E-03   1.8777E+01  0.000E+00  0.000E+00  0.000E+00  1.02694E+03  1.028E+00  1.200E+01  2.400E-01 -1.657E-03
   1   14    9     7     1    1.5000E+02  1.3479E+00   1.4865E+02  0.000E+00  0.000E+00  0.000E+00  1.03987E+03  2.288E+00  5.529E+01  5.593E-01  8.033E-01
   1   13    8     7     2    1.4865E+02  1.8756E+00   1.4678E+02  0.000E+00  0.000E+00  0.000E+00  1.03478E+03  2.279E+00  5.526E+01  6.148E-01  1.017E+00
   1   13    7     7     3    1.4678E+02  1.5340E+00   1.4524E+02  0.000E+00  0.000E+00  0.000E+00  1.02969E+03  2.270E+00  5.522E+01  5.584E-01  9.157E-01
   1   13    6     8     1    1.6402E+02  9.5172E-01   1.6307E+02  0.000E+00  0.000E+00  0.000E+00  1.02478E+03  2.910E+00  4.219E+01  4.299E-01  7.379E-01
   1   13    5     8     2    1.6307E+02  2.0532E-01   1.6286E+02  0.000E+00  0.000E+00  0.000E+00  1.01853E+03  2.906E+00  4.213E+01  4.294E-01  1.594E-01
   1   13    4     8     3    1.6286E+02 -2.3372E+00   1.6520E+02  0.000E+00  0.000E+00  0.000E+00  1.01229E+03  2.913E+00  4.224E+01  4.304E+00 -1.810E-01
   1   13    3     8     4    1.6520E+02 -3.5921E+00   1.6879E+02  0.000E+00  0.000E+00  0.000E+00  1.00606E+03  2.933E+00  4.252E+01  4.333E+00 -2.763E-01
   1   13    2     8     5    1.6879E+02 -2.5671E+00   1.7136E+02  0.000E+00  0.000E+00  0.000E+00  9.99828E+02  2.953E+00  4.281E+01  4.363E+00 -1.961E-01
   1   13    1     8     6    1.7136E+02 -1.9861E+00   1.7334E+02  0.000E+00  0.000E+00  0.000E+00  9.94842E+02  2.967E+00  4.303E+01  2.631E+00 -2.516E-01
   1    8    6     9     1    0.0000E+00  0.0000E+00   0.0000E+00  0.000E+00  0.000E+00  0.000E+00  1.07875E+03  0.000E+00  4.000E+00  0.000E+00  1.000E+00
   1    8    5     9     2    0.0000E+00  0.0000E+00   0.0000E+00  0.000E+00  0.000E+00  0.000E+00  1.07825E+03  0.000E+00  4.000E+00  0.000E+00  1.000E+00





UNSATURATED ZONE PACKAGE VOLUMETRIC BUDGET FOR  TIME STEP    30 STRESS PERIOD   38
  ------------------------------------------------------------------------------



     CUMULATIVE VOLUMES      L**3       RATES FOR THIS TIME STEP      L**3/T
     ------------------                 ------------------------

           IN:                                      IN:
           ---                                      ---
        INFILTRATION =  1512876199.1673          INFILTRATION =           0.8475

          OUT:                                     OUT:
          ----                                     ----
              UZF ET =  1285454537.6250                UZF ET =           0.7500
        UZF RECHARGE =    54028827.0841          UZF RECHARGE =       0.0000E+00

            IN - OUT =   173392834.4582              IN - OUT =       9.7500E-02

          STORAGE:                                 STORAGE:
          --------                                 --------
      STORAGE CHANGE =   173547946.9118        STORAGE CHANGE =       9.7500E-02

 PERCENT DISCREPANCY IS DIFFERENCE BETWEEN IN-OUT MINUS CHANGE IN STORAGE
 DIVIDED BY THE AVERAGE OF IN AND OUT TIMES 100

 PERCENT DISCREPANCY =          -0.00     PERCENT DISCREPANCY =           0.00






1
  VOLUMETRIC BUDGET FOR AGRICULTURAL FIELDS AT  END OF TIME STEP   30, STRESS PERIOD  38
  ------------------------------------------------------------------------------

     CUMULATIVE VOLUMES      L**3       RATES FOR THIS TIME STEP      L**3/T
     ------------------                 ------------------------

           IN:                                      IN:
           ---                                      ---
           AG WELLS      =   463900064.0000             AG WELLS      =           0.0000
      DIVERSION SEGMENTS =   966468928.0000        DIVERSION SEGMENTS =           0.0000
           GW IRRIGATION =           0.0000             GW IRRIGATION =           0.0000
           SW IRRIGATION =           0.0000             SW IRRIGATION =           0.0000
        SYSTEM LOSSES GW =           0.0000          SYSTEM LOSSES GW =           0.0000
        SYSTEM LOSSES SW =           0.0000          SYSTEM LOSSES SW =           0.0000

                TOTAL IN =  1430369024.0000                  TOTAL IN =           0.0000

          OUT:                                     OUT:
          ----                                     ----
           AG WELLS      =           0.0000             AG WELLS      =           0.0000
      DIVERSION SEGMENTS =           0.0000        DIVERSION SEGMENTS =           0.0000
           GW IRRIGATION =   463900064.0000             GW IRRIGATION =           0.0000
           SW IRRIGATION =   966488192.0000             SW IRRIGATION =           0.0000
        SYSTEM LOSSES GW =           0.0000          SYSTEM LOSSES GW =           0.0000
        SYSTEM LOSSES SW =           0.0000          SYSTEM LOSSES SW =           0.0000

               TOTAL OUT =  1430388224.0000                 TOTAL OUT =           0.0000

                IN - OUT =      -19200.0000                  IN - OUT =           0.0000

     PERCENT DISCREPANCY =          -0.00         PERCENT DISCREPANCY =           0.00



1
  VOLUMETRIC BUDGET FOR ENTIRE MODEL AT END OF TIME STEP   30, STRESS PERIOD  38
  ------------------------------------------------------------------------------

     CUMULATIVE VOLUMES      L**3       RATES FOR THIS TIME STEP      L**3/T
     ------------------                 ------------------------

           IN:                                      IN:
           ---                                      ---
             STORAGE     =   775337664.0000               STORAGE     =           1.2168
       CONSTANT HEAD     =           0.0000         CONSTANT HEAD     =           0.0000
     HEAD DEP BOUNDS     =    27849706.0000       HEAD DEP BOUNDS     =           0.2866
      STREAM LEAKAGE     =  1166251520.0000        STREAM LEAKAGE     =          11.3885
        UZF RECHARGE     =    54028828.0000          UZF RECHARGE     =           0.0000
               GW ET     =           0.0000                 GW ET     =           0.0000
     SURFACE LEAKAGE     =           0.0000       SURFACE LEAKAGE     =           0.0000
           AG WELLS      =           0.0000             AG WELLS      =           0.0000

                TOTAL IN =  2023467776.0000                  TOTAL IN =          12.8919

          OUT:                                     OUT:
          ----                                     ----
             STORAGE     =   485978016.0000               STORAGE     =           2.1198
       CONSTANT HEAD     =           0.0000         CONSTANT HEAD     =           0.0000
     HEAD DEP BOUNDS     =    28301460.0000       HEAD DEP BOUNDS     =           0.2887
      STREAM LEAKAGE     =  1042474688.0000        STREAM LEAKAGE     =          10.4836
        UZF RECHARGE     =           0.0000          UZF RECHARGE     =           0.0000
               GW ET     =     2818101.5000                 GW ET     =           0.0000
     SURFACE LEAKAGE     =           0.0000       SURFACE LEAKAGE     =           0.0000
           AG WELLS      =   463900064.0000             AG WELLS      =           0.0000

               TOTAL OUT =  2023472256.0000                 TOTAL OUT =          12.8921

                IN - OUT =       -4480.0000                  IN - OUT =      -2.5463E-04

     PERCENT DISCREPANCY =          -0.00         PERCENT DISCREPANCY =          -0.00






         TIME SUMMARY AT END OF TIME STEP   30 IN STRESS PERIOD   38
                    SECONDS     MINUTES      HOURS       DAYS        YEARS
                    -----------------------------------------------------------
   TIME STEP LENGTH  87667.      1461.1      24.352      1.0147     2.77799E-03
 STRESS PERIOD TIME 2.63000E+06  43833.      730.56      30.440     8.33397E-02
         TOTAL TIME 9.73959E+07 1.62326E+06  27054.      1127.3      3.0863    
1
1
                            STRESS PERIOD NO.   39, LENGTH =   2630000.    
                            -----------------------------------------------

                              NUMBER OF TIME STEPS =    30

                               MULTIPLIER FOR DELT =     1.000

                            INITIAL TIME STEP SIZE =   87666.66    

 REUSING NON-PARAMETER GHB CELLS FROM LAST STRESS PERIOD

      2 GHB CELLS

 REUSING STREAM SEGMENT DATA FROM LAST STRESS PERIOD



            AREAL INFILTRATION RATE
 READING ON UNIT   19 WITH FORMAT: (FREE)              

            1           2           3           4           5           6           7           8           9          10
 ........................................................................................................................
   1   1.0000E-10  2.0000E-10   0.000       0.000       0.000       0.000       0.000       0.000       0.000       0.000    
   2   2.0000E-10  1.0000E-10  2.0000E-10   0.000       0.000      8.0000E-10  8.0000E-10  5.0000E-10   0.000       0.000    
   3    0.000      5.0000E-10  1.0000E-10  1.0000E-10  8.0000E-10  8.0000E-10  5.0000E-10  5.0000E-10   0.000       0.000    
   4   8.0000E-10  5.0000E-10  1.0000E-10  1.0000E-10  1.0000E-10  1.0000E-10  1.0000E-10  1.0000E-10  2.0000E-10   0.000    
   5   8.0000E-10  5.0000E-10  1.0000E-10  1.0000E-10  1.0000E-10  1.0000E-10  1.0000E-10  1.0000E-10  1.0000E-10  1.0000E-10
   6   8.0000E-10  5.0000E-10  5.0000E-10  2.0000E-10  2.0000E-10  1.0000E-10  1.0000E-10  1.0000E-10  1.0000E-10  5.0000E-10
   7   8.0000E-10  5.0000E-10  5.0000E-10  2.0000E-10  2.0000E-10  1.0000E-10  1.0000E-10  2.0000E-10  2.0000E-10   0.000    
   8    0.000      5.0000E-10  5.0000E-10  2.0000E-10  2.0000E-10  1.0000E-10  1.0000E-10  2.0000E-10  5.0000E-10   0.000    
   9    0.000      5.0000E-10  5.0000E-10  2.0000E-10  2.0000E-10  1.0000E-10  1.0000E-10  2.0000E-10  5.0000E-10   0.000    
  10    0.000      5.0000E-10  5.0000E-10  2.0000E-10  2.0000E-10  1.0000E-10  1.0000E-10  2.0000E-10  5.0000E-10  8.0000E-10
  11    0.000      1.0000E-10  1.0000E-10  1.0000E-10  1.0000E-10  1.0000E-10  1.0000E-10  2.0000E-10  5.0000E-10   0.000    
  12   1.0000E-10  1.0000E-10  1.0000E-10  1.0000E-10  1.0000E-10  1.0000E-10  1.0000E-10  1.0000E-10  2.0000E-10   0.000    
  13   1.0000E-10  1.0000E-10  2.0000E-10  2.0000E-10  2.0000E-10  2.0000E-10  2.0000E-10  1.0000E-10  1.0000E-10   0.000    
  14    0.000      2.0000E-10  5.0000E-10  5.0000E-10  5.0000E-10  5.0000E-10  5.0000E-10  2.0000E-10  1.0000E-10   0.000    
  15    0.000       0.000      8.0000E-10  8.0000E-10  8.0000E-10  8.0000E-10   0.000       0.000       0.000       0.000    

                  ET RATE =  5.000000E-10

 USING ET EXTINCTION DEPTH FROM PREVIOUS STRESS PERIOD. CURRENT PERIOD IS:      39

 USING EXTINCTION WATER CONTENT FROM PREVIOUS STRESS PERIOD. CURRENT PERIOD IS:      39

 USING AIR ENTRY PRESSURE FROM PREVIOUS STRESS PERIOD. CURRENT PERIOD IS:      39

 USING ROOT PRESSURE HEAD FROM PREVIOUS STRESS PERIOD. CURRENT PERIOD IS:      39

 USING ROOT ACTIVITY FROM PREVIOUS STRESS PERIOD. CURRENT PERIOD IS:      39

 PROCESSING AG STRESS PERIOD DATA

 READING AG STRESS PERIOD DATA

 READING IRRIGATION SEGMENT

 READING IRRIGATION WELL

 READING SUPPLEMENTAL WELL

 END PROCESSING AG STRESS PERIOD DATA OPTIONS
 
 SOLVING FOR HEAD 
                                                   Max.-Head-Change                         Max.-Flux-Residual
  Residual-Control   Outer-Iter.   Inner-Iter.     Column Row Layer    Maximum-Head-Change  Column Row Layer    Maximum-Flux-Residual          L2-NORM 
          0                 1           2             3    6     1       0.2522677129E-02       2    2    1        -0.1072363286E+00      0.3966825958E+00
          0                 2           2             3    6     1      -0.2453878060E-03       2    2    1         0.1072363638E-01      0.3966531700E-01
          0                 3           1             3    6     1       0.1670999897E-04       2    2    1        -0.7506548479E-03      0.2776320260E-02

    ------------------------------------------------
       NWT REQUIRED            3 OUTER ITERATIONS 
       AND A TOTAL OF          5 INNER ITERATIONS.
    ------------------------------------------------

 NO OUTPUT CONTROL FOR STRESS PERIOD   39   TIME STEP    1
 
 SOLVING FOR HEAD 
                                                   Max.-Head-Change                         Max.-Flux-Residual
  Residual-Control   Outer-Iter.   Inner-Iter.     Column Row Layer    Maximum-Head-Change  Column Row Layer    Maximum-Flux-Residual          L2-NORM 
          0                 1           2             3    6     1       0.2499381346E-02       2    2    1        -0.1066951679E+00      0.3950987620E+00
          0                 2           2             3    6     1      -0.2431217596E-03       2    2    1         0.1066952033E-01      0.3950724246E-01
          0                 3           1             3    6     1       0.1655568989E-04       2    2    1        -0.7468667144E-03      0.2765283154E-02

    ------------------------------------------------
       NWT REQUIRED            3 OUTER ITERATIONS 
       AND A TOTAL OF          5 INNER ITERATIONS.
    ------------------------------------------------

 NO OUTPUT CONTROL FOR STRESS PERIOD   39   TIME STEP    2
 
 SOLVING FOR HEAD 
                                                   Max.-Head-Change                         Max.-Flux-Residual
  Residual-Control   Outer-Iter.   Inner-Iter.     Column Row Layer    Maximum-Head-Change  Column Row Layer    Maximum-Flux-Residual          L2-NORM 
          0                 1           2             3    6     1       0.2477058939E-02       2    2    1        -0.9492993563E-01      0.3909604523E+00
          0                 2           2             3    6     1      -0.2409503966E-03       2    2    1         0.9492998270E-02      0.3943299666E-01
          0                 3           1             3    6     1       0.1640782827E-04       2    2    1        -0.6645101155E-03      0.2785458926E-02

    ------------------------------------------------
       NWT REQUIRED            3 OUTER ITERATIONS 
       AND A TOTAL OF          5 INNER ITERATIONS.
    ------------------------------------------------

 NO OUTPUT CONTROL FOR STRESS PERIOD   39   TIME STEP    3
 
 SOLVING FOR HEAD 
                                                   Max.-Head-Change                         Max.-Flux-Residual
  Residual-Control   Outer-Iter.   Inner-Iter.     Column Row Layer    Maximum-Head-Change  Column Row Layer    Maximum-Flux-Residual          L2-NORM 
          0                 1           2             3    6     1       0.2454705591E-02       2    2    1        -0.8910546178E-01      0.3899407264E+00
          0                 2           2             3    6     1      -0.2387760231E-03       2    2    1         0.8910551308E-02      0.3898538746E-01
          0                 3           1             3    6     1       0.1625976097E-04       2    2    1        -0.6237388097E-03      0.2728214501E-02

    ------------------------------------------------
       NWT REQUIRED            3 OUTER ITERATIONS 
       AND A TOTAL OF          5 INNER ITERATIONS.
    ------------------------------------------------

 NO OUTPUT CONTROL FOR STRESS PERIOD   39   TIME STEP    4
 
 SOLVING FOR HEAD 
                                                   Max.-Head-Change                         Max.-Flux-Residual
  Residual-Control   Outer-Iter.   Inner-Iter.     Column Row Layer    Maximum-Head-Change  Column Row Layer    Maximum-Flux-Residual          L2-NORM 
          0                 1           2             3    6     1       0.2433299406E-02       2    2    1        -0.8870023765E-01      0.3882750155E+00
          0                 2           2             3    6     1      -0.2366937839E-03       2    2    1         0.8870028888E-02      0.3882022637E-01
          0                 3           1             3    6     1       0.1611796859E-04       2    2    1        -0.6209022349E-03      0.2716714056E-02

    ------------------------------------------------
       NWT REQUIRED            3 OUTER ITERATIONS 
       AND A TOTAL OF          5 INNER ITERATIONS.
    ------------------------------------------------

 NO OUTPUT CONTROL FOR STRESS PERIOD   39   TIME STEP    5
 
 SOLVING FOR HEAD 
                                                   Max.-Head-Change                         Max.-Flux-Residual
  Residual-Control   Outer-Iter.   Inner-Iter.     Column Row Layer    Maximum-Head-Change  Column Row Layer    Maximum-Flux-Residual          L2-NORM 
          0                 1           2             3    6     1       0.2411837928E-02       2    2    1        -0.8830355341E-01      0.3866799260E+00
          0                 2           2             3    6     1      -0.2346061651E-03       2    2    1         0.8830360451E-02      0.3866205677E-01
          0                 3           1             3    6     1       0.1597580890E-04       2    2    1        -0.6181254496E-03      0.2705833097E-02

    ------------------------------------------------
       NWT REQUIRED            3 OUTER ITERATIONS 
       AND A TOTAL OF          5 INNER ITERATIONS.
    ------------------------------------------------

 NO OUTPUT CONTROL FOR STRESS PERIOD   39   TIME STEP    6
 
 SOLVING FOR HEAD 
                                                   Max.-Head-Change                         Max.-Flux-Residual
  Residual-Control   Outer-Iter.   Inner-Iter.     Column Row Layer    Maximum-Head-Change  Column Row Layer    Maximum-Flux-Residual          L2-NORM 
          0                 1           2             3    6     1       0.2390815431E-02       2    2    1        -0.8791074682E-01      0.3851598388E+00
          0                 2           2             3    6     1      -0.2325612481E-03       2    2    1         0.8791079782E-02      0.3851094339E-01
          0                 3           1             3    6     1       0.1583655768E-04       2    2    1        -0.6153757868E-03      0.2695249749E-02

    ------------------------------------------------
       NWT REQUIRED            3 OUTER ITERATIONS 
       AND A TOTAL OF          5 INNER ITERATIONS.
    ------------------------------------------------

 NO OUTPUT CONTROL FOR STRESS PERIOD   39   TIME STEP    7
 
 SOLVING FOR HEAD 
                                                   Max.-Head-Change                         Max.-Flux-Residual
  Residual-Control   Outer-Iter.   Inner-Iter.     Column Row Layer    Maximum-Head-Change  Column Row Layer    Maximum-Flux-Residual          L2-NORM 
          0                 1           2             3    6     1       0.2370217827E-02       2    2    1        -0.8751715493E-01      0.3836927263E+00
          0                 2           2             3    6     1      -0.2305576616E-03       2    2    1         0.8751720585E-02      0.3836490566E-01
          0                 3           1             3    6     1       0.1570012146E-04       2    2    1        -0.6126206581E-03      0.2684977342E-02

    ------------------------------------------------
       NWT REQUIRED            3 OUTER ITERATIONS 
       AND A TOTAL OF          5 INNER ITERATIONS.
    ------------------------------------------------

 NO OUTPUT CONTROL FOR STRESS PERIOD   39   TIME STEP    8
 
 SOLVING FOR HEAD 
                                                   Max.-Head-Change                         Max.-Flux-Residual
  Residual-Control   Outer-Iter.   Inner-Iter.     Column Row Layer    Maximum-Head-Change  Column Row Layer    Maximum-Flux-Residual          L2-NORM 
          0                 1           2             3    6     1       0.2349542073E-02       2    2    1        -0.8713193471E-01      0.3822848601E+00
          0                 2           2             3    6     1      -0.2285464729E-03       2    2    1         0.8713198551E-02      0.3822492966E-01
          0                 3           1             3    6     1       0.1556316692E-04       2    2    1        -0.6099241149E-03      0.2675431310E-02

    ------------------------------------------------
       NWT REQUIRED            3 OUTER ITERATIONS 
       AND A TOTAL OF          5 INNER ITERATIONS.
    ------------------------------------------------

 NO OUTPUT CONTROL FOR STRESS PERIOD   39   TIME STEP    9
 
 SOLVING FOR HEAD 
                                                   Max.-Head-Change                         Max.-Flux-Residual
  Residual-Control   Outer-Iter.   Inner-Iter.     Column Row Layer    Maximum-Head-Change  Column Row Layer    Maximum-Flux-Residual          L2-NORM 
          0                 1           2             3    6     1       0.2329775306E-02       2    2    1        -0.8674580781E-01      0.3809253983E+00
          0                 2           2             3    6     1      -0.2266237036E-03       2    2    1         0.8674585850E-02      0.3808961312E-01
          0                 3           1             3    6     1       0.1543223335E-04       2    2    1        -0.6072212333E-03      0.2665954282E-02

    ------------------------------------------------
       NWT REQUIRED            3 OUTER ITERATIONS 
       AND A TOTAL OF          5 INNER ITERATIONS.
    ------------------------------------------------

 NO OUTPUT CONTROL FOR STRESS PERIOD   39   TIME STEP   10
 
 SOLVING FOR HEAD 
                                                   Max.-Head-Change                         Max.-Flux-Residual
  Residual-Control   Outer-Iter.   Inner-Iter.     Column Row Layer    Maximum-Head-Change  Column Row Layer    Maximum-Flux-Residual          L2-NORM 
          0                 1           2             3    6     1       0.2309914476E-02       2    2    1        -0.8636793243E-01      0.3796014294E+00
          0                 2           2             3    6     1      -0.2246917852E-03       2    2    1         0.8636798305E-02      0.3795775153E-01
          0                 3           1             3    6     1       0.1530067662E-04       2    2    1        -0.6045760938E-03      0.2656870341E-02

    ------------------------------------------------
       NWT REQUIRED            3 OUTER ITERATIONS 
       AND A TOTAL OF          5 INNER ITERATIONS.
    ------------------------------------------------

 NO OUTPUT CONTROL FOR STRESS PERIOD   39   TIME STEP   11
 
 SOLVING FOR HEAD 
                                                   Max.-Head-Change                         Max.-Flux-Residual
  Residual-Control   Outer-Iter.   Inner-Iter.     Column Row Layer    Maximum-Head-Change  Column Row Layer    Maximum-Flux-Residual          L2-NORM 
          0                 1           2             3    6     1       0.2290450311E-02       2    2    1        -0.8598903153E-01      0.3783106085E+00
          0                 2           2             3    6     1      -0.2227984512E-03       2    2    1         0.8598908214E-02      0.3782898901E-01
          0                 3           1             3    6     1       0.1517174791E-04       2    2    1        -0.6019237845E-03      0.2647822170E-02

    ------------------------------------------------
       NWT REQUIRED            3 OUTER ITERATIONS 
       AND A TOTAL OF          5 INNER ITERATIONS.
    ------------------------------------------------

 NO OUTPUT CONTROL FOR STRESS PERIOD   39   TIME STEP   12
 
 SOLVING FOR HEAD 
                                                   Max.-Head-Change                         Max.-Flux-Residual
  Residual-Control   Outer-Iter.   Inner-Iter.     Column Row Layer    Maximum-Head-Change  Column Row Layer    Maximum-Flux-Residual          L2-NORM 
          0                 1           2             3    6     1       0.2271373706E-02       2    2    1        -0.8561368631E-01      0.3770624738E+00
          0                 2           2             3    6     1      -0.2209428165E-03       2    2    1         0.8561373660E-02      0.3770457981E-01
          0                 3           1             3    6     1       0.1504538568E-04       2    2    1        -0.5992963723E-03      0.2639182105E-02

    ------------------------------------------------
       NWT REQUIRED            3 OUTER ITERATIONS 
       AND A TOTAL OF          5 INNER ITERATIONS.
    ------------------------------------------------

 NO OUTPUT CONTROL FOR STRESS PERIOD   39   TIME STEP   13
 
 SOLVING FOR HEAD 
                                                   Max.-Head-Change                         Max.-Flux-Residual
  Residual-Control   Outer-Iter.   Inner-Iter.     Column Row Layer    Maximum-Head-Change  Column Row Layer    Maximum-Flux-Residual          L2-NORM 
          0                 1           2             3    6     1       0.2252676737E-02       2    2    1        -0.8524180052E-01      0.3758449508E+00
          0                 2           2             3    6     1      -0.2191241097E-03       2    2    1         0.8524185091E-02      0.3758314712E-01
          0                 3           1             3    6     1       0.1492153905E-04       2    2    1        -0.5966931778E-03      0.2630743926E-02

    ------------------------------------------------
       NWT REQUIRED            3 OUTER ITERATIONS 
       AND A TOTAL OF          5 INNER ITERATIONS.
    ------------------------------------------------

 NO OUTPUT CONTROL FOR STRESS PERIOD   39   TIME STEP   14
 
 SOLVING FOR HEAD 
                                                   Max.-Head-Change                         Max.-Flux-Residual
  Residual-Control   Outer-Iter.   Inner-Iter.     Column Row Layer    Maximum-Head-Change  Column Row Layer    Maximum-Flux-Residual          L2-NORM 
          0                 1           2             3    6     1       0.2234349586E-02       2    2    1        -0.8487793884E-01      0.3746550455E+00
          0                 2           2             3    6     1      -0.2173413759E-03       2    2    1         0.8487798893E-02      0.3746432736E-01
          0                 3           1             3    6     1       0.1480014128E-04       2    2    1        -0.5941461347E-03      0.2622382211E-02

    ------------------------------------------------
       NWT REQUIRED            3 OUTER ITERATIONS 
       AND A TOTAL OF          5 INNER ITERATIONS.
    ------------------------------------------------

 NO OUTPUT CONTROL FOR STRESS PERIOD   39   TIME STEP   15
 
 SOLVING FOR HEAD 
                                                   Max.-Head-Change                         Max.-Flux-Residual
  Residual-Control   Outer-Iter.   Inner-Iter.     Column Row Layer    Maximum-Head-Change  Column Row Layer    Maximum-Flux-Residual          L2-NORM 
          0                 1           2             3    6     1       0.2216381338E-02       2    2    1        -0.8451282907E-01      0.3734918683E+00
          0                 2           2             3    6     1      -0.2155935544E-03       2    2    1         0.8451287913E-02      0.3734846598E-01
          0                 3           1             3    6     1       0.1468112114E-04       2    2    1        -0.5915903723E-03      0.2614523040E-02

    ------------------------------------------------
       NWT REQUIRED            3 OUTER ITERATIONS 
       AND A TOTAL OF          5 INNER ITERATIONS.
    ------------------------------------------------

 NO OUTPUT CONTROL FOR STRESS PERIOD   39   TIME STEP   16
 
 SOLVING FOR HEAD 
                                                   Max.-Head-Change                         Max.-Flux-Residual
  Residual-Control   Outer-Iter.   Inner-Iter.     Column Row Layer    Maximum-Head-Change  Column Row Layer    Maximum-Flux-Residual          L2-NORM 
          0                 1           2             3    6     1       0.2198273992E-02       2    2    1        -0.8415105745E-01      0.3723531224E+00
          0                 2           2             3    6     1      -0.2138322022E-03       2    2    1         0.8415110733E-02      0.3723454969E-01
          0                 3           1             3    6     1       0.1456117986E-04       2    2    1        -0.5890579571E-03      0.2606347528E-02

    ------------------------------------------------
       NWT REQUIRED            3 OUTER ITERATIONS 
       AND A TOTAL OF          5 INNER ITERATIONS.
    ------------------------------------------------

 NO OUTPUT CONTROL FOR STRESS PERIOD   39   TIME STEP   17
 
 SOLVING FOR HEAD 
                                                   Max.-Head-Change                         Max.-Flux-Residual
  Residual-Control   Outer-Iter.   Inner-Iter.     Column Row Layer    Maximum-Head-Change  Column Row Layer    Maximum-Flux-Residual          L2-NORM 
          0                 1           2             3    6     1       0.2181013055E-02       2    2    1        -0.8379255119E-01      0.3712319030E+00
          0                 2           2             3    6     1      -0.2121531821E-03       2    2    1         0.8379260087E-02      0.3712255502E-01
          0                 3           1             3    6     1       0.1444684465E-04       2    2    1        -0.5865484080E-03      0.2598492230E-02

    ------------------------------------------------
       NWT REQUIRED            3 OUTER ITERATIONS 
       AND A TOTAL OF          5 INNER ITERATIONS.
    ------------------------------------------------

 NO OUTPUT CONTROL FOR STRESS PERIOD   39   TIME STEP   18
 
 SOLVING FOR HEAD 
                                                   Max.-Head-Change                         Max.-Flux-Residual
  Residual-Control   Outer-Iter.   Inner-Iter.     Column Row Layer    Maximum-Head-Change  Column Row Layer    Maximum-Flux-Residual          L2-NORM 
          0                 1           2             3    6     1       0.2163597045E-02       2    2    1        -0.8343727791E-01      0.3701367744E+00
          0                 2           2             3    6     1      -0.2104590781E-03       2    2    1         0.8343732751E-02      0.3701309200E-01
          0                 3           1             3    6     1       0.1433148253E-04       2    2    1        -0.5840614916E-03      0.2590821158E-02

    ------------------------------------------------
       NWT REQUIRED            3 OUTER ITERATIONS 
       AND A TOTAL OF          5 INNER ITERATIONS.
    ------------------------------------------------

 NO OUTPUT CONTROL FOR STRESS PERIOD   39   TIME STEP   19
 
 SOLVING FOR HEAD 
                                                   Max.-Head-Change                         Max.-Flux-Residual
  Residual-Control   Outer-Iter.   Inner-Iter.     Column Row Layer    Maximum-Head-Change  Column Row Layer    Maximum-Flux-Residual          L2-NORM 
          0                 1           2             3    6     1       0.2146518397E-02       2    2    1        -0.8308516846E-01      0.3690519483E+00
          0                 2           2             3    6     1      -0.2087977902E-03       2    2    1         0.8308521796E-02      0.3690479117E-01
          0                 3           1             3    6     1       0.1421835483E-04       2    2    1        -0.5815967418E-03      0.2583350358E-02

    ------------------------------------------------
       NWT REQUIRED            3 OUTER ITERATIONS 
       AND A TOTAL OF          5 INNER ITERATIONS.
    ------------------------------------------------

 NO OUTPUT CONTROL FOR STRESS PERIOD   39   TIME STEP   20
 
 SOLVING FOR HEAD 
                                                   Max.-Head-Change                         Max.-Flux-Residual
  Residual-Control   Outer-Iter.   Inner-Iter.     Column Row Layer    Maximum-Head-Change  Column Row Layer    Maximum-Flux-Residual          L2-NORM 
          0                 1           2             3    6     1       0.2129772279E-02       2    2    1        -0.8273619346E-01      0.3679964615E+00
          0                 2           2             3    6     1      -0.2071688482E-03       2    2    1         0.8273624269E-02      0.3679931306E-01
          0                 3           1             3    6     1       0.1410743010E-04       2    2    1        -0.5791538875E-03      0.2575946148E-02

    ------------------------------------------------
       NWT REQUIRED            3 OUTER ITERATIONS 
       AND A TOTAL OF          5 INNER ITERATIONS.
    ------------------------------------------------

 NO OUTPUT CONTROL FOR STRESS PERIOD   39   TIME STEP   21
 
 SOLVING FOR HEAD 
                                                   Max.-Head-Change                         Max.-Flux-Residual
  Residual-Control   Outer-Iter.   Inner-Iter.     Column Row Layer    Maximum-Head-Change  Column Row Layer    Maximum-Flux-Residual          L2-NORM 
          0                 1           2             3    6     1       0.2113349378E-02       2    2    1        -0.8238570448E-01      0.3669524009E+00
          0                 2           2             3    6     1      -0.2055713465E-03       2    2    1         0.8238575345E-02      0.3669495902E-01
          0                 3           1             3    6     1       0.1399864583E-04       2    2    1        -0.5767004689E-03      0.2568622952E-02

    ------------------------------------------------
       NWT REQUIRED            3 OUTER ITERATIONS 
       AND A TOTAL OF          5 INNER ITERATIONS.
    ------------------------------------------------

 NO OUTPUT CONTROL FOR STRESS PERIOD   39   TIME STEP   22
 
 SOLVING FOR HEAD 
                                                   Max.-Head-Change                         Max.-Flux-Residual
  Residual-Control   Outer-Iter.   Inner-Iter.     Column Row Layer    Maximum-Head-Change  Column Row Layer    Maximum-Flux-Residual          L2-NORM 
          0                 1           2             3    6     1       0.2097241634E-02       2    2    1        -0.8204284955E-01      0.3659214815E+00
          0                 2           2             3    6     1      -0.2040045011E-03       2    2    1         0.8204289825E-02      0.3659190576E-01
          0                 3           1             3    6     1       0.1389194950E-04       2    2    1        -0.5743004821E-03      0.2561398520E-02

    ------------------------------------------------
       NWT REQUIRED            3 OUTER ITERATIONS 
       AND A TOTAL OF          5 INNER ITERATIONS.
    ------------------------------------------------

 NO OUTPUT CONTROL FOR STRESS PERIOD   39   TIME STEP   23
 
 SOLVING FOR HEAD 
                                                   Max.-Head-Change                         Max.-Flux-Residual
  Residual-Control   Outer-Iter.   Inner-Iter.     Column Row Layer    Maximum-Head-Change  Column Row Layer    Maximum-Flux-Residual          L2-NORM 
          0                 1           2             3    6     1       0.2080952319E-02       2    2    1        -0.8170296716E-01      0.3649095290E+00
          0                 2           2             3    6     1      -0.2024199937E-03       2    2    1         0.8170301598E-02      0.3649076140E-01
          0                 3           1             3    6     1       0.1378405015E-04       2    2    1        -0.5719213206E-03      0.2554289457E-02

    ------------------------------------------------
       NWT REQUIRED            3 OUTER ITERATIONS 
       AND A TOTAL OF          5 INNER ITERATIONS.
    ------------------------------------------------

 NO OUTPUT CONTROL FOR STRESS PERIOD   39   TIME STEP   24
 
 SOLVING FOR HEAD 
                                                   Max.-Head-Change                         Max.-Flux-Residual
  Residual-Control   Outer-Iter.   Inner-Iter.     Column Row Layer    Maximum-Head-Change  Column Row Layer    Maximum-Flux-Residual          L2-NORM 
          0                 1           2             3    6     1       0.2065467853E-02       2    2    1        -0.8136602924E-01      0.3639140735E+00
          0                 2           2             3    6     1      -0.2009137630E-03       2    2    1         0.8136607780E-02      0.3598689808E-01
          0                 3           1             3    6     1       0.1368148164E-04       2    2    1        -0.5695627469E-03      0.2519052324E-02

    ------------------------------------------------
       NWT REQUIRED            3 OUTER ITERATIONS 
       AND A TOTAL OF          5 INNER ITERATIONS.
    ------------------------------------------------

 NO OUTPUT CONTROL FOR STRESS PERIOD   39   TIME STEP   25
 
 SOLVING FOR HEAD 
                                                   Max.-Head-Change                         Max.-Flux-Residual
  Residual-Control   Outer-Iter.   Inner-Iter.     Column Row Layer    Maximum-Head-Change  Column Row Layer    Maximum-Flux-Residual          L2-NORM 
          0                 1           2             3    6     1       0.2049782693E-02       2    2    1        -0.8102739351E-01      0.3630017936E+00
          0                 2           2             3    6     1      -0.1993880194E-03       2    2    1         0.8102744192E-02      0.3595481535E-01
          0                 3           1             3    6     1       0.1357758491E-04       2    2    1        -0.5671923007E-03      0.2512971479E-02

    ------------------------------------------------
       NWT REQUIRED            3 OUTER ITERATIONS 
       AND A TOTAL OF          5 INNER ITERATIONS.
    ------------------------------------------------

 NO OUTPUT CONTROL FOR STRESS PERIOD   39   TIME STEP   26
 
 SOLVING FOR HEAD 
                                                   Max.-Head-Change                         Max.-Flux-Residual
  Residual-Control   Outer-Iter.   Inner-Iter.     Column Row Layer    Maximum-Head-Change  Column Row Layer    Maximum-Flux-Residual          L2-NORM 
          0                 1           2             3    6     1       0.2034395976E-02       2    2    1        -0.8069621144E-01      0.3620282289E+00
          0                 2           2             3    6     1      -0.1978913105E-03       2    2    1         0.8069625970E-02      0.3586133015E-01
          0                 3           1             3    6     1       0.1347566488E-04       2    2    1        -0.5648740214E-03      0.2506427131E-02

    ------------------------------------------------
       NWT REQUIRED            3 OUTER ITERATIONS 
       AND A TOTAL OF          5 INNER ITERATIONS.
    ------------------------------------------------

 NO OUTPUT CONTROL FOR STRESS PERIOD   39   TIME STEP   27
 
 SOLVING FOR HEAD 
                                                   Max.-Head-Change                         Max.-Flux-Residual
  Residual-Control   Outer-Iter.   Inner-Iter.     Column Row Layer    Maximum-Head-Change  Column Row Layer    Maximum-Flux-Residual          L2-NORM 
          0                 1           2             3    6     1       0.2019792651E-02       2    2    1        -0.8036326285E-01      0.3610709397E+00
          0                 2           2             3    6     1      -0.1964708044E-03       2    2    1         0.8036331090E-02      0.3576914787E-01
          0                 3           1             3    6     1       0.1337893320E-04       2    2    1        -0.5625433619E-03      0.2499999731E-02

    ------------------------------------------------
       NWT REQUIRED            3 OUTER ITERATIONS 
       AND A TOTAL OF          5 INNER ITERATIONS.
    ------------------------------------------------

 NO OUTPUT CONTROL FOR STRESS PERIOD   39   TIME STEP   28
 
 SOLVING FOR HEAD 
                                                   Max.-Head-Change                         Max.-Flux-Residual
  Residual-Control   Outer-Iter.   Inner-Iter.     Column Row Layer    Maximum-Head-Change  Column Row Layer    Maximum-Flux-Residual          L2-NORM 
          0                 1           2             3    6     1       0.2004971061E-02       2    2    1        -0.8003768143E-01      0.3601258991E+00
          0                 2           2             3    6     1      -0.1950290669E-03       2    2    1         0.8003772917E-02      0.3567772848E-01
          0                 3           1             3    6     1       0.1328075639E-04       2    2    1        -0.5602643196E-03      0.2493626300E-02

    ------------------------------------------------
       NWT REQUIRED            3 OUTER ITERATIONS 
       AND A TOTAL OF          5 INNER ITERATIONS.
    ------------------------------------------------

 NO OUTPUT CONTROL FOR STRESS PERIOD   39   TIME STEP   29
 
 SOLVING FOR HEAD 
                                                   Max.-Head-Change                         Max.-Flux-Residual
  Residual-Control   Outer-Iter.   Inner-Iter.     Column Row Layer    Maximum-Head-Change  Column Row Layer    Maximum-Flux-Residual          L2-NORM 
          0                 1           2             4   13     1       0.6607459263E-02       4   13    1         0.3792410488E+00      0.7780881126E+00
          0                 2           2             4   13     1      -0.6363109246E-03       4   13    1        -0.3755080554E-01      0.7609568006E-01
          0                 3           1             4   13     1       0.4272505932E-04       4   13    1         0.2592327285E-02      0.5178626765E-02

    ------------------------------------------------
       NWT REQUIRED            3 OUTER ITERATIONS 
       AND A TOTAL OF          5 INNER ITERATIONS.
    ------------------------------------------------

 NO OUTPUT CONTROL FOR STRESS PERIOD   39   TIME STEP   30



 STREAM LISTING     PERIOD     39   STEP       30

 LAYER ROW COL. STREAM  RCH.  FLOW INTO     FLOW TO   FLOW OUT OF   OVRLND.     DIRECT     STREAM       STREAM     STREAM     STREAM   STREAMBED  STREAMBED
                SEG.NO.  NO.  STRM. RCH.    AQUIFER    STRM. RCH.    RUNOFF     PRECIP       ET          HEAD       DEPTH      WIDTH   CONDCTNC.   GRADIENT

   1    1    1     1     1    3.2750E+01  2.7790E-01   3.2473E+01  0.000E+00  0.000E+00  0.000E+00  1.09432E+03  1.273E+00  1.445E+01  6.503E-02  1.424E+00
   1    2    2     1     2    3.2473E+01  4.3019E-01   3.2042E+01  0.000E+00  0.000E+00  0.000E+00  1.08933E+03  1.270E+00  1.439E+01  1.007E-01  1.423E+00
   1    3    3     1     3    3.2042E+01  3.6669E-01   3.1676E+01  0.000E+00  0.000E+00  0.000E+00  1.08369E+03  1.267E+00  1.432E+01  8.594E-02  1.422E+00
   1    3    4     1     4    3.1676E+01  3.3752E-01   3.1338E+01  0.000E+00  0.000E+00  0.000E+00  1.07867E+03  1.264E+00  1.426E+01  7.916E-02  1.421E+00
   1    4    5     2     1    2.9338E+01  3.3732E-01   2.9001E+01  0.000E+00  0.000E+00  0.000E+00  1.07326E+03  1.325E+00  1.200E+01  7.800E-02  1.442E+00
   1    5    6     2     2    2.9001E+01  2.5899E-01   2.8742E+01  0.000E+00  0.000E+00  0.000E+00  1.06783E+03  1.317E+00  1.200E+01  6.000E-02  1.439E+00
   1    6    6     2     3    2.8742E+01  2.5857E-01   2.8483E+01  0.000E+00  0.000E+00  0.000E+00  1.06310E+03  1.309E+00  1.200E+01  6.000E-02  1.436E+00
   1    7    6     2     4    2.8483E+01  2.5814E-01   2.8225E+01  0.000E+00  0.000E+00  0.000E+00  1.05838E+03  1.302E+00  1.200E+01  6.000E-02  1.434E+00
   1    8    6     2     5    2.8225E+01  2.5771E-01   2.7967E+01  0.000E+00  0.000E+00  0.000E+00  1.05365E+03  1.295E+00  1.200E+01  6.000E-02  1.432E+00
   1    3    5     3     1    2.0000E+00  2.8252E-01   1.7175E+00  0.000E+00  0.000E+00  0.000E+00  1.07555E+03  1.909E+00  9.636E+00  7.227E-02  1.955E+00
   1    3    6     3     2    1.7175E+00  2.4905E-01   1.4684E+00  0.000E+00  0.000E+00  0.000E+00  1.07264E+03  1.727E+00  8.909E+00  6.682E-02  1.864E+00
   1    3    7     3     3    1.4684E+00  1.9718E-01   1.2712E+00  0.000E+00  0.000E+00  0.000E+00  1.06987E+03  1.555E+00  8.218E+00  5.547E-02  1.777E+00
   1    4    8     3     4    1.2712E+00  2.2567E-01   1.0456E+00  0.000E+00  0.000E+00  0.000E+00  1.06682E+03  1.364E+00  7.455E+00  6.709E-02  1.682E+00
   1    5    8     3     5    1.0456E+00  1.5790E-01   8.8768E-01  0.000E+00  0.000E+00  0.000E+00  1.06362E+03  1.164E+00  6.655E+00  4.991E-02  1.582E+00
   1    6    8     3     6    8.8768E-01  5.5980E-02   8.3170E-01  0.000E+00  0.000E+00  0.000E+00  1.06158E+03  1.036E+00  6.145E+00  1.844E-02  1.518E+00
   1    5   10     4     1    1.0000E+01  9.0919E-02   9.9091E+00  0.000E+00  0.000E+00  0.000E+00  1.07836E+03  6.368E-01  1.000E+01  2.500E-02  1.212E+00
   1    5    9     4     2    9.9091E+00  1.8158E-01   9.7275E+00  0.000E+00  0.000E+00  0.000E+00  1.07154E+03  6.315E-01  1.000E+01  5.000E-02  1.211E+00
   1    6    8     4     3    9.7275E+00  1.2689E-01   9.6006E+00  0.000E+00  0.000E+00  0.000E+00  1.06381E+03  6.256E-01  1.000E+01  3.500E-02  1.209E+00
   1    6    8     5     1    1.0432E+01  2.2686E-01   1.0205E+01  0.000E+00  0.000E+00  0.000E+00  1.05868E+03  6.790E-01  1.542E+01  6.166E-02  1.226E+00
   1    7    7     5     2    1.0205E+01  2.7894E-01   9.9265E+00  0.000E+00  0.000E+00  0.000E+00  1.05417E+03  6.732E-01  1.519E+01  7.594E-02  1.224E+00
   1    8    7     5     3    9.9265E+00  1.9221E-01   9.7343E+00  0.000E+00  0.000E+00  0.000E+00  1.04992E+03  6.676E-01  1.497E+01  5.241E-02  1.223E+00
   1    8    6     5     4    9.7343E+00  1.3577E-01   9.5985E+00  0.000E+00  0.000E+00  0.000E+00  1.04691E+03  6.637E-01  1.482E+01  3.706E-02  1.221E+00
   1    9    6     6     1    3.7566E+01  2.7334E-01   3.7293E+01  0.000E+00  0.000E+00  0.000E+00  1.04428E+03  1.556E+00  1.200E+01  6.000E-02  1.519E+00
   1   10    7     6     2    3.7293E+01  2.7293E-01   3.7020E+01  0.000E+00  0.000E+00  0.000E+00  1.03973E+03  1.549E+00  1.200E+01  6.000E-02  1.516E+00
   1   11    7     6     3    3.7020E+01  2.7252E-01   3.6747E+01  0.000E+00  0.000E+00  0.000E+00  1.03518E+03  1.542E+00  1.200E+01  6.000E-02  1.514E+00
   1   12    7     6     4    3.6747E+01  2.7211E-01   3.6475E+01  0.000E+00  0.000E+00  0.000E+00  1.03063E+03  1.535E+00  1.200E+01  6.000E-02  1.512E+00
   1   13    7     6     5    3.6475E+01  1.2057E-02   3.6463E+01  0.000E+00  0.000E+00  0.000E+00  1.02744E+03  1.532E+00  1.200E+01  2.400E-02  1.675E-01
   1   14    9     7     1    1.5000E+02  1.3489E+00   1.4865E+02  0.000E+00  0.000E+00  0.000E+00  1.03987E+03  2.288E+00  5.529E+01  5.593E-01  8.039E-01
   1   13    8     7     2    1.4865E+02  1.8778E+00   1.4677E+02  0.000E+00  0.000E+00  0.000E+00  1.03478E+03  2.279E+00  5.526E+01  6.148E-01  1.018E+00
   1   13    7     7     3    1.4677E+02  1.5363E+00   1.4524E+02  0.000E+00  0.000E+00  0.000E+00  1.02969E+03  2.270E+00  5.521E+01  5.584E-01  9.170E-01
   1   13    6     8     1    1.8170E+02  1.0410E+00   1.8066E+02  0.000E+00  0.000E+00  0.000E+00  1.02490E+03  3.024E+00  4.384E+01  4.468E-01  7.767E-01
   1   13    5     8     2    1.8066E+02  2.6457E-01   1.8039E+02  0.000E+00  0.000E+00  0.000E+00  1.01864E+03  3.019E+00  4.378E+01  4.462E-01  1.977E-01
   1   13    4     8     3    1.8039E+02 -1.9709E+00   1.8237E+02  0.000E+00  0.000E+00  0.000E+00  1.01240E+03  3.025E+00  4.386E+01  4.469E+00 -1.470E-01
   1   13    3     8     4    1.8237E+02 -3.2759E+00   1.8564E+02  0.000E+00  0.000E+00  0.000E+00  1.00617E+03  3.041E+00  4.410E+01  4.494E+00 -2.430E-01
   1   13    2     8     5    1.8564E+02 -2.2254E+00   1.8787E+02  0.000E+00  0.000E+00  0.000E+00  9.99933E+02  3.058E+00  4.434E+01  4.519E+00 -1.642E-01
   1   13    1     8     6    1.8787E+02 -1.7866E+00   1.8965E+02  0.000E+00  0.000E+00  0.000E+00  9.94945E+02  3.070E+00  4.452E+01  2.722E+00 -2.188E-01
   1    8    6     9     1    0.0000E+00  0.0000E+00   0.0000E+00  0.000E+00  0.000E+00  0.000E+00  1.07875E+03  0.000E+00  4.000E+00  0.000E+00  1.000E+00
   1    8    5     9     2    0.0000E+00  0.0000E+00   0.0000E+00  0.000E+00  0.000E+00  0.000E+00  1.07825E+03  0.000E+00  4.000E+00  0.000E+00  1.000E+00





UNSATURATED ZONE PACKAGE VOLUMETRIC BUDGET FOR  TIME STEP    30 STRESS PERIOD   39
  ------------------------------------------------------------------------------



     CUMULATIVE VOLUMES      L**3       RATES FOR THIS TIME STEP      L**3/T
     ------------------                 ------------------------

           IN:                                      IN:
           ---                                      ---
        INFILTRATION =  1515105124.0400          INFILTRATION =           0.8475

          OUT:                                     OUT:
          ----                                     ----
              UZF ET =  1287427037.4758                UZF ET =           0.7500
        UZF RECHARGE =    54032969.5013          UZF RECHARGE =           0.0083

            IN - OUT =   173645117.0630              IN - OUT =       8.9239E-02

          STORAGE:                                 STORAGE:
          --------                                 --------
      STORAGE CHANGE =   173800229.5379        STORAGE CHANGE =       8.9239E-02

 PERCENT DISCREPANCY IS DIFFERENCE BETWEEN IN-OUT MINUS CHANGE IN STORAGE
 DIVIDED BY THE AVERAGE OF IN AND OUT TIMES 100

 PERCENT DISCREPANCY =          -0.00     PERCENT DISCREPANCY =           0.00






1
  VOLUMETRIC BUDGET FOR AGRICULTURAL FIELDS AT  END OF TIME STEP   30, STRESS PERIOD  39
  ------------------------------------------------------------------------------

     CUMULATIVE VOLUMES      L**3       RATES FOR THIS TIME STEP      L**3/T
     ------------------                 ------------------------

           IN:                                      IN:
           ---                                      ---
           AG WELLS      =   463900064.0000             AG WELLS      =           0.0000
      DIVERSION SEGMENTS =   966468928.0000        DIVERSION SEGMENTS =           0.0000
           GW IRRIGATION =           0.0000             GW IRRIGATION =           0.0000
           SW IRRIGATION =           0.0000             SW IRRIGATION =           0.0000
        SYSTEM LOSSES GW =           0.0000          SYSTEM LOSSES GW =           0.0000
        SYSTEM LOSSES SW =           0.0000          SYSTEM LOSSES SW =           0.0000

                TOTAL IN =  1430369024.0000                  TOTAL IN =           0.0000

          OUT:                                     OUT:
          ----                                     ----
           AG WELLS      =           0.0000             AG WELLS      =           0.0000
      DIVERSION SEGMENTS =           0.0000        DIVERSION SEGMENTS =           0.0000
           GW IRRIGATION =   463900064.0000             GW IRRIGATION =           0.0000
           SW IRRIGATION =   966488192.0000             SW IRRIGATION =           0.0000
        SYSTEM LOSSES GW =           0.0000          SYSTEM LOSSES GW =           0.0000
        SYSTEM LOSSES SW =           0.0000          SYSTEM LOSSES SW =           0.0000

               TOTAL OUT =  1430388224.0000                 TOTAL OUT =           0.0000

                IN - OUT =      -19200.0000                  IN - OUT =           0.0000

     PERCENT DISCREPANCY =          -0.00         PERCENT DISCREPANCY =           0.00



1
  VOLUMETRIC BUDGET FOR ENTIRE MODEL AT END OF TIME STEP   30, STRESS PERIOD  39
  ------------------------------------------------------------------------------

     CUMULATIVE VOLUMES      L**3       RATES FOR THIS TIME STEP      L**3/T
     ------------------                 ------------------------

           IN:                                      IN:
           ---                                      ---
             STORAGE     =   778079936.0000               STORAGE     =           0.8305
       CONSTANT HEAD     =           0.0000         CONSTANT HEAD     =           0.0000
     HEAD DEP BOUNDS     =    28603504.0000       HEAD DEP BOUNDS     =           0.2866
      STREAM LEAKAGE     =  1196525056.0000        STREAM LEAKAGE     =          12.3559
        UZF RECHARGE     =    54032964.0000          UZF RECHARGE     =       8.2607E-03
               GW ET     =           0.0000                 GW ET     =           0.0000
     SURFACE LEAKAGE     =           0.0000       SURFACE LEAKAGE     =           0.0000
           AG WELLS      =           0.0000             AG WELLS      =           0.0000

                TOTAL IN =  2057241472.0000                  TOTAL IN =          13.4814

          OUT:                                     OUT:
          ----                                     ----
             STORAGE     =   491706048.0000               STORAGE     =           3.9345
       CONSTANT HEAD     =           0.0000         CONSTANT HEAD     =           0.0000
     HEAD DEP BOUNDS     =    29060790.0000       HEAD DEP BOUNDS     =           0.2889
      STREAM LEAKAGE     =  1069762048.0000        STREAM LEAKAGE     =           9.2589
        UZF RECHARGE     =           0.0000          UZF RECHARGE     =           0.0000
               GW ET     =     2818101.5000                 GW ET     =           0.0000
     SURFACE LEAKAGE     =           0.0000       SURFACE LEAKAGE     =           0.0000
           AG WELLS      =   463900064.0000             AG WELLS      =           0.0000

               TOTAL OUT =  2057246976.0000                 TOTAL OUT =          13.4822

                IN - OUT =       -5504.0000                  IN - OUT =      -8.6021E-04

     PERCENT DISCREPANCY =          -0.00         PERCENT DISCREPANCY =          -0.01






         TIME SUMMARY AT END OF TIME STEP   30 IN STRESS PERIOD   39
                    SECONDS     MINUTES      HOURS       DAYS        YEARS
                    -----------------------------------------------------------
   TIME STEP LENGTH  87667.      1461.1      24.352      1.0147     2.77799E-03
 STRESS PERIOD TIME 2.63000E+06  43833.      730.56      30.440     8.33397E-02
         TOTAL TIME 1.00026E+08 1.66710E+06  27785.      1157.7      3.1696    
1
1
                            STRESS PERIOD NO.   40, LENGTH =   2630000.    
                            -----------------------------------------------

                              NUMBER OF TIME STEPS =    30

                               MULTIPLIER FOR DELT =     1.000

                            INITIAL TIME STEP SIZE =   87666.66    

 REUSING NON-PARAMETER GHB CELLS FROM LAST STRESS PERIOD

      2 GHB CELLS

 REUSING STREAM SEGMENT DATA FROM LAST STRESS PERIOD



            AREAL INFILTRATION RATE
 READING ON UNIT   19 WITH FORMAT: (FREE)              

            1           2           3           4           5           6           7           8           9          10
 ........................................................................................................................
   1   1.0000E-10  2.0000E-10   0.000       0.000       0.000       0.000       0.000       0.000       0.000       0.000    
   2   2.0000E-10  1.0000E-10  2.0000E-10   0.000       0.000      8.0000E-10  8.0000E-10  5.0000E-10   0.000       0.000    
   3    0.000      5.0000E-10  1.0000E-10  1.0000E-10  8.0000E-10  8.0000E-10  5.0000E-10  5.0000E-10   0.000       0.000    
   4   8.0000E-10  5.0000E-10  1.0000E-10  1.0000E-10  1.0000E-10  1.0000E-10  1.0000E-10  1.0000E-10  2.0000E-10   0.000    
   5   8.0000E-10  5.0000E-10  1.0000E-10  1.0000E-10  1.0000E-10  1.0000E-10  1.0000E-10  1.0000E-10  1.0000E-10  1.0000E-10
   6   8.0000E-10  5.0000E-10  5.0000E-10  2.0000E-10  2.0000E-10  1.0000E-10  1.0000E-10  1.0000E-10  1.0000E-10  5.0000E-10
   7   8.0000E-10  5.0000E-10  5.0000E-10  2.0000E-10  2.0000E-10  1.0000E-10  1.0000E-10  2.0000E-10  2.0000E-10   0.000    
   8    0.000      5.0000E-10  5.0000E-10  2.0000E-10  2.0000E-10  1.0000E-10  1.0000E-10  2.0000E-10  5.0000E-10   0.000    
   9    0.000      5.0000E-10  5.0000E-10  2.0000E-10  2.0000E-10  1.0000E-10  1.0000E-10  2.0000E-10  5.0000E-10   0.000    
  10    0.000      5.0000E-10  5.0000E-10  2.0000E-10  2.0000E-10  1.0000E-10  1.0000E-10  2.0000E-10  5.0000E-10  8.0000E-10
  11    0.000      1.0000E-10  1.0000E-10  1.0000E-10  1.0000E-10  1.0000E-10  1.0000E-10  2.0000E-10  5.0000E-10   0.000    
  12   1.0000E-10  1.0000E-10  1.0000E-10  1.0000E-10  1.0000E-10  1.0000E-10  1.0000E-10  1.0000E-10  2.0000E-10   0.000    
  13   1.0000E-10  1.0000E-10  2.0000E-10  2.0000E-10  2.0000E-10  2.0000E-10  2.0000E-10  1.0000E-10  1.0000E-10   0.000    
  14    0.000      2.0000E-10  5.0000E-10  5.0000E-10  5.0000E-10  5.0000E-10  5.0000E-10  2.0000E-10  1.0000E-10   0.000    
  15    0.000       0.000      8.0000E-10  8.0000E-10  8.0000E-10  8.0000E-10   0.000       0.000       0.000       0.000    

                  ET RATE =  5.000000E-10

 USING ET EXTINCTION DEPTH FROM PREVIOUS STRESS PERIOD. CURRENT PERIOD IS:      40

 USING EXTINCTION WATER CONTENT FROM PREVIOUS STRESS PERIOD. CURRENT PERIOD IS:      40

 USING AIR ENTRY PRESSURE FROM PREVIOUS STRESS PERIOD. CURRENT PERIOD IS:      40

 USING ROOT PRESSURE HEAD FROM PREVIOUS STRESS PERIOD. CURRENT PERIOD IS:      40

 USING ROOT ACTIVITY FROM PREVIOUS STRESS PERIOD. CURRENT PERIOD IS:      40

 PROCESSING AG STRESS PERIOD DATA

 READING AG STRESS PERIOD DATA

 READING IRRIGATION SEGMENT

 READING IRRIGATION WELL

 READING SUPPLEMENTAL WELL

 END PROCESSING AG STRESS PERIOD DATA OPTIONS
 
 SOLVING FOR HEAD 
                                                   Max.-Head-Change                         Max.-Flux-Residual
  Residual-Control   Outer-Iter.   Inner-Iter.     Column Row Layer    Maximum-Head-Change  Column Row Layer    Maximum-Flux-Residual          L2-NORM 
          0                 1           2             4   13     1       0.2234689360E-01       4   13    1         0.1289321764E+01      0.2340566991E+01
          0                 2           2             4   13     1      -0.2149518865E-02       4   13    1        -0.1275159907E+00      0.2272256812E+00
          0                 3           2             4   13     1       0.1441101845E-03       4   13    1         0.8789948336E-02      0.1527202318E-01
          0                 4           1             4   13     1      -0.5595953046E-05       4   13    1        -0.3509654371E-03      0.5848109616E-03

    ------------------------------------------------
       NWT REQUIRED            4 OUTER ITERATIONS 
       AND A TOTAL OF          7 INNER ITERATIONS.
    ------------------------------------------------

 NO OUTPUT CONTROL FOR STRESS PERIOD   40   TIME STEP    1
 
 SOLVING FOR HEAD 
                                                   Max.-Head-Change                         Max.-Flux-Residual
  Residual-Control   Outer-Iter.   Inner-Iter.     Column Row Layer    Maximum-Head-Change  Column Row Layer    Maximum-Flux-Residual          L2-NORM 
          0                 1           2             4   13     1       0.2014632726E-01       4   13    1         0.1161659309E+01      0.2166320030E+01
          0                 2           2             4   13     1      -0.1937889263E-02       4   13    1        -0.1148862214E+00      0.2104770360E+00
          0                 3           2             4   13     1       0.1299212328E-03       4   13    1         0.7919228499E-02      0.1415934820E-01
          0                 4           1             4   13     1      -0.5050333530E-05       4   13    1        -0.3165335784E-03      0.5436152332E-03

    ------------------------------------------------
       NWT REQUIRED            4 OUTER ITERATIONS 
       AND A TOTAL OF          7 INNER ITERATIONS.
    ------------------------------------------------

 NO OUTPUT CONTROL FOR STRESS PERIOD   40   TIME STEP    2
 
 SOLVING FOR HEAD 
                                                   Max.-Head-Change                         Max.-Flux-Residual
  Residual-Control   Outer-Iter.   Inner-Iter.     Column Row Layer    Maximum-Head-Change  Column Row Layer    Maximum-Flux-Residual          L2-NORM 
          0                 1           2             4   13     1       0.1817364234E-01       4   13    1         0.1047264533E+01      0.2009314420E+01
          0                 2           2             4   13     1      -0.1747992678E-02       4   13    1        -0.1035683575E+00      0.1953019016E+00
          0                 3           1             4   13     1       0.1171688172E-03       4   13    1         0.7137714175E-02      0.1314990588E-01
          0                 4           1             4   13     1      -0.4533242978E-05       4   13    1        -0.2839398603E-03      0.5045680744E-03

    ------------------------------------------------
       NWT REQUIRED            4 OUTER ITERATIONS 
       AND A TOTAL OF          6 INNER ITERATIONS.
    ------------------------------------------------

 NO OUTPUT CONTROL FOR STRESS PERIOD   40   TIME STEP    3
 
 SOLVING FOR HEAD 
                                                   Max.-Head-Change                         Max.-Flux-Residual
  Residual-Control   Outer-Iter.   Inner-Iter.     Column Row Layer    Maximum-Head-Change  Column Row Layer    Maximum-Flux-Residual          L2-NORM 
          0                 1           2             2   13     1       0.1667653464E-01       4   13    1         0.9447280601E+00      0.1867947739E+01
          0                 2           2             4   13     1      -0.1577811519E-02       4   13    1        -0.9342352830E-01      0.1816942746E+00
          0                 3           1             4   13     1       0.1057655455E-03       4   13    1         0.6438618567E-02      0.1225360577E-01
          0                 4           1             4   13     1      -0.4080897426E-05       4   13    1        -0.2554220082E-03      0.4704208197E-03

    ------------------------------------------------
       NWT REQUIRED            4 OUTER ITERATIONS 
       AND A TOTAL OF          6 INNER ITERATIONS.
    ------------------------------------------------

 NO OUTPUT CONTROL FOR STRESS PERIOD   40   TIME STEP    4
 
 SOLVING FOR HEAD 
                                                   Max.-Head-Change                         Max.-Flux-Residual
  Residual-Control   Outer-Iter.   Inner-Iter.     Column Row Layer    Maximum-Head-Change  Column Row Layer    Maximum-Flux-Residual          L2-NORM 
          0                 1           2             2   13     1       0.1536056483E-01       2   13    1         0.8692723359E+00      0.1740746278E+01
          0                 2           2             4   13     1      -0.1425133987E-02       4   13    1        -0.8432546145E-01      0.1694460876E+00
          0                 3           1             4   13     1       0.9552047820E-04       4   13    1         0.5810986672E-02      0.1143578382E-01

    ------------------------------------------------
       NWT REQUIRED            3 OUTER ITERATIONS 
       AND A TOTAL OF          5 INNER ITERATIONS.
    ------------------------------------------------

 NO OUTPUT CONTROL FOR STRESS PERIOD   40   TIME STEP    5
 
 SOLVING FOR HEAD 
                                                   Max.-Head-Change                         Max.-Flux-Residual
  Residual-Control   Outer-Iter.   Inner-Iter.     Column Row Layer    Maximum-Head-Change  Column Row Layer    Maximum-Flux-Residual          L2-NORM 
          0                 1           2             2   13     1       0.1414896158E-01       2   13    1         0.8006184429E+00      0.1626341449E+01
          0                 2           2             2   13     1      -0.1311863178E-02       2   13    1        -0.7630495520E-01      0.1584407908E+00
          0                 3           1             4   13     1       0.8634094714E-04       4   13    1         0.5248725197E-02      0.1070758037E-01

    ------------------------------------------------
       NWT REQUIRED            3 OUTER ITERATIONS 
       AND A TOTAL OF          5 INNER ITERATIONS.
    ------------------------------------------------

 NO OUTPUT CONTROL FOR STRESS PERIOD   40   TIME STEP    6
 
 SOLVING FOR HEAD 
                                                   Max.-Head-Change                         Max.-Flux-Residual
  Residual-Control   Outer-Iter.   Inner-Iter.     Column Row Layer    Maximum-Head-Change  Column Row Layer    Maximum-Flux-Residual          L2-NORM 
          0                 1           2             2   13     1       0.1303382078E-01       2   13    1         0.7374325352E+00      0.1523540341E+01
          0                 2           2             2   13     1      -0.1209118351E-02       2   13    1        -0.7032015151E-01      0.1485573314E+00
          0                 3           1             4   13     1       0.7808020018E-04       4   13    1         0.4742936559E-02      0.1005240545E-01

    ------------------------------------------------
       NWT REQUIRED            3 OUTER ITERATIONS 
       AND A TOTAL OF          5 INNER ITERATIONS.
    ------------------------------------------------

 NO OUTPUT CONTROL FOR STRESS PERIOD   40   TIME STEP    7
 
 SOLVING FOR HEAD 
                                                   Max.-Head-Change                         Max.-Flux-Residual
  Residual-Control   Outer-Iter.   Inner-Iter.     Column Row Layer    Maximum-Head-Change  Column Row Layer    Maximum-Flux-Residual          L2-NORM 
          0                 1           2             2   13     1       0.1200748332E-01       2   13    1         0.6792806683E+00      0.1431243179E+01
          0                 2           2             2   13     1      -0.1114463917E-02       2   13    1        -0.6480637282E-01      0.1397203611E+00
          0                 3           1             2   13     1       0.7094350026E-04       4   13    1         0.4289206643E-02      0.9468334440E-02

    ------------------------------------------------
       NWT REQUIRED            3 OUTER ITERATIONS 
       AND A TOTAL OF          5 INNER ITERATIONS.
    ------------------------------------------------

 NO OUTPUT CONTROL FOR STRESS PERIOD   40   TIME STEP    8
 
 SOLVING FOR HEAD 
                                                   Max.-Head-Change                         Max.-Flux-Residual
  Residual-Control   Outer-Iter.   Inner-Iter.     Column Row Layer    Maximum-Head-Change  Column Row Layer    Maximum-Flux-Residual          L2-NORM 
          0                 1           2             2   13     1       0.1106282947E-01       2   13    1         0.6257607969E+00      0.1348418180E+01
          0                 2           2             2   13     1      -0.1027242925E-02       2   13    1        -0.5972691774E-01      0.1317364184E+00
          0                 3           1             2   13     1       0.6544623125E-04       2   13    1         0.3910788146E-02      0.8940231692E-02

    ------------------------------------------------
       NWT REQUIRED            3 OUTER ITERATIONS 
       AND A TOTAL OF          5 INNER ITERATIONS.
    ------------------------------------------------

 NO OUTPUT CONTROL FOR STRESS PERIOD   40   TIME STEP    9
 
 SOLVING FOR HEAD 
                                                   Max.-Head-Change                         Max.-Flux-Residual
  Residual-Control   Outer-Iter.   Inner-Iter.     Column Row Layer    Maximum-Head-Change  Column Row Layer    Maximum-Flux-Residual          L2-NORM 
          0                 1           2             2   13     1       0.1019355409E-01       2   13    1         0.5765133954E+00      0.1274143529E+01
          0                 2           2             2   13     1      -0.9469313015E-03       2   13    1        -0.5504962053E-01      0.1246087591E+00
          0                 3           1             2   13     1       0.6036381664E-04       2   13    1         0.3606553195E-02      0.8470311767E-02

    ------------------------------------------------
       NWT REQUIRED            3 OUTER ITERATIONS 
       AND A TOTAL OF          5 INNER ITERATIONS.
    ------------------------------------------------

 NO OUTPUT CONTROL FOR STRESS PERIOD   40   TIME STEP   10
 
 SOLVING FOR HEAD 
                                                   Max.-Head-Change                         Max.-Flux-Residual
  Residual-Control   Outer-Iter.   Inner-Iter.     Column Row Layer    Maximum-Head-Change  Column Row Layer    Maximum-Flux-Residual          L2-NORM 
          0                 1           2             2   13     1       0.9393503607E-02       2   13    1         0.5311900947E+00      0.1207613188E+01
          0                 2           2             2   13     1      -0.8729381969E-03       2   13    1        -0.5074053597E-01      0.1182279511E+00
          0                 3           1             2   13     1       0.5567333758E-04       2   13    1         0.3325784573E-02      0.8050015450E-02

    ------------------------------------------------
       NWT REQUIRED            3 OUTER ITERATIONS 
       AND A TOTAL OF          5 INNER ITERATIONS.
    ------------------------------------------------

 NO OUTPUT CONTROL FOR STRESS PERIOD   40   TIME STEP   11
 
 SOLVING FOR HEAD 
                                                   Max.-Head-Change                         Max.-Flux-Residual
  Residual-Control   Outer-Iter.   Inner-Iter.     Column Row Layer    Maximum-Head-Change  Column Row Layer    Maximum-Flux-Residual          L2-NORM 
          0                 1           2             2   13     1       0.8657300019E-02       2   13    1         0.4894861162E+00      0.1148068469E+01
          0                 2           2             2   13     1      -0.8047931321E-03       2   13    1        -0.4677226421E-01      0.1125190806E+00
          0                 3           1             2   13     1       0.5136913379E-04       2   13    1         0.3068174870E-02      0.7674334108E-02

    ------------------------------------------------
       NWT REQUIRED            3 OUTER ITERATIONS 
       AND A TOTAL OF          5 INNER ITERATIONS.
    ------------------------------------------------

 NO OUTPUT CONTROL FOR STRESS PERIOD   40   TIME STEP   12
 
 SOLVING FOR HEAD 
                                                   Max.-Head-Change                         Max.-Flux-Residual
  Residual-Control   Outer-Iter.   Inner-Iter.     Column Row Layer    Maximum-Head-Change  Column Row Layer    Maximum-Flux-Residual          L2-NORM 
          0                 1           2             2   13     1       0.7979738452E-02       2   13    1         0.4511064023E+00      0.1094798985E+01
          0                 2           2             2   13     1      -0.7420316492E-03       2   13    1        -0.4311773082E-01      0.1074149784E+00
          0                 3           1             2   13     1       0.4740304925E-04       2   13    1         0.2830798178E-02      0.7340381715E-02

    ------------------------------------------------
       NWT REQUIRED            3 OUTER ITERATIONS 
       AND A TOTAL OF          5 INNER ITERATIONS.
    ------------------------------------------------

 NO OUTPUT CONTROL FOR STRESS PERIOD   40   TIME STEP   13
 
 SOLVING FOR HEAD 
                                                   Max.-Head-Change                         Max.-Flux-Residual
  Residual-Control   Outer-Iter.   Inner-Iter.     Column Row Layer    Maximum-Head-Change  Column Row Layer    Maximum-Flux-Residual          L2-NORM 
          0                 1           2             2   13     1       0.7356301789E-02       2   13    1         0.4157949279E+00      0.1047169392E+01
          0                 2           2             2   13     1      -0.6842567094E-03       2   13    1        -0.3975381708E-01      0.1028599488E+00
          0                 3           1             2   13     1       0.4372171059E-04       2   13    1         0.2610498329E-02      0.7039751798E-02

    ------------------------------------------------
       NWT REQUIRED            3 OUTER ITERATIONS 
       AND A TOTAL OF          5 INNER ITERATIONS.
    ------------------------------------------------

 NO OUTPUT CONTROL FOR STRESS PERIOD   40   TIME STEP   14
 
 SOLVING FOR HEAD 
                                                   Max.-Head-Change                         Max.-Flux-Residual
  Residual-Control   Outer-Iter.   Inner-Iter.     Column Row Layer    Maximum-Head-Change  Column Row Layer    Maximum-Flux-Residual          L2-NORM 
          0                 1           2             2   13     1       0.6782512620E-02       2   13    1         0.3832977683E+00      0.1004595639E+01
          0                 2           2             2   13     1      -0.6310306089E-03       2   13    1        -0.3665498357E-01      0.9877527963E-01
          0                 3           1             2   13     1       0.4032283141E-04       2   13    1         0.2407102064E-02      0.6770811181E-02

    ------------------------------------------------
       NWT REQUIRED            3 OUTER ITERATIONS 
       AND A TOTAL OF          5 INNER ITERATIONS.
    ------------------------------------------------

 NO OUTPUT CONTROL FOR STRESS PERIOD   40   TIME STEP   15
 
 SOLVING FOR HEAD 
                                                   Max.-Head-Change                         Max.-Flux-Residual
  Residual-Control   Outer-Iter.   Inner-Iter.     Column Row Layer    Maximum-Head-Change  Column Row Layer    Maximum-Flux-Residual          L2-NORM 
          0                 1           2             1   13     1       0.6296388571E-02       2   13    1         0.3533925777E+00      0.9665284629E+00
          0                 2           2             1   13     1      -0.5913191040E-03       2   13    1        -0.3380137310E-01      0.9512970828E-01
          0                 3           1             1   13     1       0.3832033342E-04       2   13    1         0.2220852295E-02      0.6531907106E-02

    ------------------------------------------------
       NWT REQUIRED            3 OUTER ITERATIONS 
       AND A TOTAL OF          5 INNER ITERATIONS.
    ------------------------------------------------

 NO OUTPUT CONTROL FOR STRESS PERIOD   40   TIME STEP   16
 
 SOLVING FOR HEAD 
                                                   Max.-Head-Change                         Max.-Flux-Residual
  Residual-Control   Outer-Iter.   Inner-Iter.     Column Row Layer    Maximum-Head-Change  Column Row Layer    Maximum-Flux-Residual          L2-NORM 
          0                 1           2             1   13     1       0.5997637698E-02       1   13    1         0.3276433269E+00      0.9325057860E+00
          0                 2           2             1   13     1      -0.5638927803E-03       1   13    1        -0.3167062453E-01      0.9187185315E-01
          0                 3           1             1   13     1       0.3660151165E-04       1   13    1         0.2113366206E-02      0.6317103765E-02

    ------------------------------------------------
       NWT REQUIRED            3 OUTER ITERATIONS 
       AND A TOTAL OF          5 INNER ITERATIONS.
    ------------------------------------------------

 NO OUTPUT CONTROL FOR STRESS PERIOD   40   TIME STEP   17
 
 SOLVING FOR HEAD 
                                                   Max.-Head-Change                         Max.-Flux-Residual
  Residual-Control   Outer-Iter.   Inner-Iter.     Column Row Layer    Maximum-Head-Change  Column Row Layer    Maximum-Flux-Residual          L2-NORM 
          0                 1           2             1   13     1       0.5711383124E-02       1   13    1         0.3120672931E+00      0.9020932194E+00
          0                 2           2             1   13     1      -0.5375524281E-03       1   13    1        -0.3019729780E-01      0.8895911189E-01
          0                 3           1             1   13     1       0.3494751315E-04       1   13    1         0.2018272389E-02      0.6126221479E-02

    ------------------------------------------------
       NWT REQUIRED            3 OUTER ITERATIONS 
       AND A TOTAL OF          5 INNER ITERATIONS.
    ------------------------------------------------

 NO OUTPUT CONTROL FOR STRESS PERIOD   40   TIME STEP   18
 
 SOLVING FOR HEAD 
                                                   Max.-Head-Change                         Max.-Flux-Residual
  Residual-Control   Outer-Iter.   Inner-Iter.     Column Row Layer    Maximum-Head-Change  Column Row Layer    Maximum-Flux-Residual          L2-NORM 
          0                 1           2             1   13     1       0.5437233345E-02       1   13    1         0.2971437620E+00      0.8749039632E+00
          0                 2           2             1   13     1      -0.5122576622E-03       1   13    1        -0.2878184018E-01      0.8635490667E-01
          0                 3           1             1   13     1       0.3335220525E-04       1   13    1         0.1926523505E-02      0.5954885744E-02

    ------------------------------------------------
       NWT REQUIRED            3 OUTER ITERATIONS 
       AND A TOTAL OF          5 INNER ITERATIONS.
    ------------------------------------------------

 NO OUTPUT CONTROL FOR STRESS PERIOD   40   TIME STEP   19
 
 SOLVING FOR HEAD 
                                                   Max.-Head-Change                         Max.-Flux-Residual
  Residual-Control   Outer-Iter.   Inner-Iter.     Column Row Layer    Maximum-Head-Change  Column Row Layer    Maximum-Flux-Residual          L2-NORM 
          0                 1           2             1   13     1       0.5174872716E-02       1   13    1         0.2828563964E+00      0.8505737327E+00
          0                 2           2             1   13     1      -0.4880013526E-03       1   13    1        -0.2742393199E-01      0.8402396165E-01
          0                 3           1             1   13     1       0.3182404250E-04       1   13    1         0.1838588719E-02      0.5802493953E-02

    ------------------------------------------------
       NWT REQUIRED            3 OUTER ITERATIONS 
       AND A TOTAL OF          5 INNER ITERATIONS.
    ------------------------------------------------

 NO OUTPUT CONTROL FOR STRESS PERIOD   40   TIME STEP   20
 
 SOLVING FOR HEAD 
                                                   Max.-Head-Change                         Max.-Flux-Residual
  Residual-Control   Outer-Iter.   Inner-Iter.     Column Row Layer    Maximum-Head-Change  Column Row Layer    Maximum-Flux-Residual          L2-NORM 
          0                 1           2             1   13     1       0.4923949827E-02       1   13    1         0.2691868948E+00      0.8287777759E+00
          0                 2           2             1   13     1      -0.4647316230E-03       1   13    1        -0.2612075813E-01      0.8193372594E-01
          0                 3           1             1   13     1       0.3033832781E-04       1   13    1         0.1753064120E-02      0.5664421899E-02

    ------------------------------------------------
       NWT REQUIRED            3 OUTER ITERATIONS 
       AND A TOTAL OF          5 INNER ITERATIONS.
    ------------------------------------------------

 NO OUTPUT CONTROL FOR STRESS PERIOD   40   TIME STEP   21
 
 SOLVING FOR HEAD 
                                                   Max.-Head-Change                         Max.-Flux-Residual
  Residual-Control   Outer-Iter.   Inner-Iter.     Column Row Layer    Maximum-Head-Change  Column Row Layer    Maximum-Flux-Residual          L2-NORM 
          0                 1           2             1   13     1       0.4684049719E-02       1   13    1         0.2561133187E+00      0.8092353436E+00
          0                 2           2             1   13     1      -0.4424444462E-03       1   13    1        -0.2487214412E-01      0.8005946266E-01
          0                 3           1             1    1     1       0.2913873016E-04       1   13    1         0.1670949034E-02      0.5541591166E-02

    ------------------------------------------------
       NWT REQUIRED            3 OUTER ITERATIONS 
       AND A TOTAL OF          5 INNER ITERATIONS.
    ------------------------------------------------

 NO OUTPUT CONTROL FOR STRESS PERIOD   40   TIME STEP   22
 
 SOLVING FOR HEAD 
                                                   Max.-Head-Change                         Max.-Flux-Residual
  Residual-Control   Outer-Iter.   Inner-Iter.     Column Row Layer    Maximum-Head-Change  Column Row Layer    Maximum-Flux-Residual          L2-NORM 
          0                 1           2             1   13     1       0.4454846803E-02       1   13    1         0.2436185824E+00      0.7916721536E+00
          0                 2           2             1    1     1      -0.4273548438E-03       1   13    1        -0.2367670870E-01      0.7837208136E-01
          0                 3           1             1    1     1       0.2910127425E-04       1    1    1         0.1596874678E-02      0.5430076294E-02

    ------------------------------------------------
       NWT REQUIRED            3 OUTER ITERATIONS 
       AND A TOTAL OF          5 INNER ITERATIONS.
    ------------------------------------------------

 NO OUTPUT CONTROL FOR STRESS PERIOD   40   TIME STEP   23
 
 SOLVING FOR HEAD 
                                                   Max.-Head-Change                         Max.-Flux-Residual
  Residual-Control   Outer-Iter.   Inner-Iter.     Column Row Layer    Maximum-Head-Change  Column Row Layer    Maximum-Flux-Residual          L2-NORM 
          0                 1           2             1    1     1       0.4387750300E-02       1   13    1         0.2316831746E+00      0.7758898262E+00
          0                 2           2             1    1     1      -0.4268091118E-03       1    1    1        -0.2278329397E-01      0.7685560272E-01
          0                 3           1             1    1     1       0.2906411182E-04       1    1    1         0.1594830859E-02      0.5330268604E-02

    ------------------------------------------------
       NWT REQUIRED            3 OUTER ITERATIONS 
       AND A TOTAL OF          5 INNER ITERATIONS.
    ------------------------------------------------

 NO OUTPUT CONTROL FOR STRESS PERIOD   40   TIME STEP   24
 
 SOLVING FOR HEAD 
                                                   Max.-Head-Change                         Max.-Flux-Residual
  Residual-Control   Outer-Iter.   Inner-Iter.     Column Row Layer    Maximum-Head-Change  Column Row Layer    Maximum-Flux-Residual          L2-NORM 
          0                 1           2             1    1     1       0.4382160845E-02       1    1    1         0.2275416228E+00      0.7616622049E+00
          0                 2           2             1    1     1      -0.4262654070E-03       1    1    1        -0.2275420526E-01      0.7548635640E-01
          0                 3           1             1    1     1       0.2902708783E-04       1    1    1         0.1592794650E-02      0.5239695408E-02

    ------------------------------------------------
       NWT REQUIRED            3 OUTER ITERATIONS 
       AND A TOTAL OF          5 INNER ITERATIONS.
    ------------------------------------------------

 NO OUTPUT CONTROL FOR STRESS PERIOD   40   TIME STEP   25
 
 SOLVING FOR HEAD 
                                                   Max.-Head-Change                         Max.-Flux-Residual
  Residual-Control   Outer-Iter.   Inner-Iter.     Column Row Layer    Maximum-Head-Change  Column Row Layer    Maximum-Flux-Residual          L2-NORM 
          0                 1           2             1    1     1       0.4376568788E-02       1    1    1         0.2272506070E+00      0.7488123279E+00
          0                 2           2             1    1     1      -0.4257214493E-03       1    1    1        -0.2272510347E-01      0.7424956029E-01
          0                 3           1             1    1     1       0.2899004610E-04       1    1    1         0.1590757533E-02      0.5158225657E-02

    ------------------------------------------------
       NWT REQUIRED            3 OUTER ITERATIONS 
       AND A TOTAL OF          5 INNER ITERATIONS.
    ------------------------------------------------

 NO OUTPUT CONTROL FOR STRESS PERIOD   40   TIME STEP   26
 
 SOLVING FOR HEAD 
                                                   Max.-Head-Change                         Max.-Flux-Residual
  Residual-Control   Outer-Iter.   Inner-Iter.     Column Row Layer    Maximum-Head-Change  Column Row Layer    Maximum-Flux-Residual          L2-NORM 
          0                 1           2             1    1     1       0.4371020705E-02       1    1    1         0.2269618795E+00      0.7371873090E+00
          0                 2           2             1    1     1      -0.4251817692E-03       1    1    1        -0.2269623053E-01      0.7312848771E-01
          0                 3           1             1    1     1       0.2895329595E-04       1    1    1         0.1588736430E-02      0.5083942149E-02

    ------------------------------------------------
       NWT REQUIRED            3 OUTER ITERATIONS 
       AND A TOTAL OF          5 INNER ITERATIONS.
    ------------------------------------------------

 NO OUTPUT CONTROL FOR STRESS PERIOD   40   TIME STEP   27
 
 SOLVING FOR HEAD 
                                                   Max.-Head-Change                         Max.-Flux-Residual
  Residual-Control   Outer-Iter.   Inner-Iter.     Column Row Layer    Maximum-Head-Change  Column Row Layer    Maximum-Flux-Residual          L2-NORM 
          0                 1           2             1    1     1       0.4365493111E-02       1    1    1         0.2266742203E+00      0.7266471700E+00
          0                 2           2             1    1     1      -0.4246440816E-03       1    1    1        -0.2266746439E-01      0.7210983847E-01
          0                 3           1             1    1     1       0.2891668164E-04       1    1    1         0.1586722800E-02      0.5015834818E-02

    ------------------------------------------------
       NWT REQUIRED            3 OUTER ITERATIONS 
       AND A TOTAL OF          5 INNER ITERATIONS.
    ------------------------------------------------

 NO OUTPUT CONTROL FOR STRESS PERIOD   40   TIME STEP   28
 
 SOLVING FOR HEAD 
                                                   Max.-Head-Change                         Max.-Flux-Residual
  Residual-Control   Outer-Iter.   Inner-Iter.     Column Row Layer    Maximum-Head-Change  Column Row Layer    Maximum-Flux-Residual          L2-NORM 
          0                 1           2             1    1     1       0.4359962552E-02       1    1    1         0.2263864113E+00      0.7170600091E+00
          0                 2           2             1    1     1      -0.4241061057E-03       1    1    1        -0.2263868328E-01      0.7118332024E-01
          0                 3           1             1    1     1       0.2888004746E-04       1    1    1         0.1584708120E-02      0.4954887741E-02

    ------------------------------------------------
       NWT REQUIRED            3 OUTER ITERATIONS 
       AND A TOTAL OF          5 INNER ITERATIONS.
    ------------------------------------------------

 NO OUTPUT CONTROL FOR STRESS PERIOD   40   TIME STEP   29
 
 SOLVING FOR HEAD 
                                                   Max.-Head-Change                         Max.-Flux-Residual
  Residual-Control   Outer-Iter.   Inner-Iter.     Column Row Layer    Maximum-Head-Change  Column Row Layer    Maximum-Flux-Residual          L2-NORM 
          0                 1           2             1    1     1       0.4354475628E-02       1    1    1         0.2261008729E+00      0.7083201465E+00
          0                 2           2             1    1     1      -0.4235723748E-03       1    1    1        -0.2261012926E-01      0.7033637013E-01
          0                 3           1             1    1     1       0.2884370202E-04       1    1    1         0.1582709324E-02      0.4897937160E-02

    ------------------------------------------------
       NWT REQUIRED            3 OUTER ITERATIONS 
       AND A TOTAL OF          5 INNER ITERATIONS.
    ------------------------------------------------

 NO OUTPUT CONTROL FOR STRESS PERIOD   40   TIME STEP   30



 STREAM LISTING     PERIOD     40   STEP       30

 LAYER ROW COL. STREAM  RCH.  FLOW INTO     FLOW TO   FLOW OUT OF   OVRLND.     DIRECT     STREAM       STREAM     STREAM     STREAM   STREAMBED  STREAMBED
                SEG.NO.  NO.  STRM. RCH.    AQUIFER    STRM. RCH.    RUNOFF     PRECIP       ET          HEAD       DEPTH      WIDTH   CONDCTNC.   GRADIENT

   1    1    1     1     1    7.3498E+01  4.1744E-01   7.3080E+01  0.000E+00  0.000E+00  0.000E+00  1.09473E+03  1.681E+00  1.982E+01  8.917E-02  1.560E+00
   1    2    2     1     2    7.3080E+01  6.4665E-01   7.2434E+01  0.000E+00  0.000E+00  0.000E+00  1.08973E+03  1.675E+00  1.976E+01  1.383E-01  1.558E+00
   1    3    3     1     3    7.2434E+01  5.5165E-01   7.1882E+01  0.000E+00  0.000E+00  0.000E+00  1.08409E+03  1.669E+00  1.969E+01  1.182E-01  1.556E+00
   1    3    4     1     4    7.1882E+01  5.0813E-01   7.1374E+01  0.000E+00  0.000E+00  0.000E+00  1.07907E+03  1.663E+00  1.963E+01  1.090E-01  1.554E+00
   1    4    5     2     1    6.9374E+01  4.0746E-01   6.8966E+01  0.000E+00  0.000E+00  0.000E+00  1.07416E+03  2.224E+00  1.200E+01  7.800E-02  1.741E+00
   1    5    6     2     2    6.8966E+01  3.1301E-01   6.8653E+01  0.000E+00  0.000E+00  0.000E+00  1.06873E+03  2.217E+00  1.200E+01  6.000E-02  1.739E+00
   1    6    6     2     3    6.8653E+01  3.1265E-01   6.8341E+01  0.000E+00  0.000E+00  0.000E+00  1.06400E+03  2.211E+00  1.200E+01  6.000E-02  1.737E+00
   1    7    6     2     4    6.8341E+01  3.1228E-01   6.8028E+01  0.000E+00  0.000E+00  0.000E+00  1.05928E+03  2.205E+00  1.200E+01  6.000E-02  1.735E+00
   1    8    6     2     5    6.8028E+01  3.1192E-01   6.7717E+01  0.000E+00  0.000E+00  0.000E+00  1.05456E+03  2.199E+00  1.200E+01  6.000E-02  1.733E+00
   1    3    5     3     1    2.0000E+00  2.8252E-01   1.7175E+00  0.000E+00  0.000E+00  0.000E+00  1.07555E+03  1.909E+00  9.636E+00  7.227E-02  1.955E+00
   1    3    6     3     2    1.7175E+00  2.4905E-01   1.4684E+00  0.000E+00  0.000E+00  0.000E+00  1.07264E+03  1.727E+00  8.909E+00  6.682E-02  1.864E+00
   1    3    7     3     3    1.4684E+00  1.9718E-01   1.2712E+00  0.000E+00  0.000E+00  0.000E+00  1.06987E+03  1.555E+00  8.218E+00  5.547E-02  1.777E+00
   1    4    8     3     4    1.2712E+00  2.2567E-01   1.0456E+00  0.000E+00  0.000E+00  0.000E+00  1.06682E+03  1.364E+00  7.455E+00  6.709E-02  1.682E+00
   1    5    8     3     5    1.0456E+00  1.5790E-01   8.8768E-01  0.000E+00  0.000E+00  0.000E+00  1.06362E+03  1.164E+00  6.655E+00  4.991E-02  1.582E+00
   1    6    8     3     6    8.8768E-01  5.5980E-02   8.3170E-01  0.000E+00  0.000E+00  0.000E+00  1.06158E+03  1.036E+00  6.145E+00  1.844E-02  1.518E+00
   1    5   10     4     1    1.0000E+01  9.0919E-02   9.9091E+00  0.000E+00  0.000E+00  0.000E+00  1.07836E+03  6.368E-01  1.000E+01  2.500E-02  1.212E+00
   1    5    9     4     2    9.9091E+00  1.8158E-01   9.7275E+00  0.000E+00  0.000E+00  0.000E+00  1.07154E+03  6.315E-01  1.000E+01  5.000E-02  1.211E+00
   1    6    8     4     3    9.7275E+00  1.2689E-01   9.6006E+00  0.000E+00  0.000E+00  0.000E+00  1.06381E+03  6.256E-01  1.000E+01  3.500E-02  1.209E+00
   1    6    8     5     1    1.0432E+01  2.2686E-01   1.0205E+01  0.000E+00  0.000E+00  0.000E+00  1.05868E+03  6.790E-01  1.542E+01  6.166E-02  1.226E+00
   1    7    7     5     2    1.0205E+01  2.7894E-01   9.9265E+00  0.000E+00  0.000E+00  0.000E+00  1.05417E+03  6.732E-01  1.519E+01  7.594E-02  1.224E+00
   1    8    7     5     3    9.9265E+00  1.9221E-01   9.7343E+00  0.000E+00  0.000E+00  0.000E+00  1.04992E+03  6.676E-01  1.497E+01  5.241E-02  1.223E+00
   1    8    6     5     4    9.7343E+00  1.3577E-01   9.5985E+00  0.000E+00  0.000E+00  0.000E+00  1.04691E+03  6.637E-01  1.482E+01  3.706E-02  1.221E+00
   1    9    6     6     1    7.7315E+01  3.2406E-01   7.6991E+01  0.000E+00  0.000E+00  0.000E+00  1.04513E+03  2.401E+00  1.200E+01  6.000E-02  1.800E+00
   1   10    7     6     2    7.6991E+01  3.2369E-01   7.6667E+01  0.000E+00  0.000E+00  0.000E+00  1.04058E+03  2.395E+00  1.200E+01  6.000E-02  1.798E+00
   1   11    7     6     3    7.6667E+01  3.2333E-01   7.6344E+01  0.000E+00  0.000E+00  0.000E+00  1.03603E+03  2.389E+00  1.200E+01  6.000E-02  1.796E+00
   1   12    7     6     4    7.6344E+01  3.2297E-01   7.6021E+01  0.000E+00  0.000E+00  0.000E+00  1.03147E+03  2.383E+00  1.200E+01  6.000E-02  1.794E+00
   1   13    7     6     5    7.6021E+01  3.1898E-02   7.5989E+01  0.000E+00  0.000E+00  0.000E+00  1.02829E+03  2.379E+00  1.200E+01  2.400E-02  4.430E-01
   1   14    9     7     1    1.5000E+02  1.3498E+00   1.4865E+02  0.000E+00  0.000E+00  0.000E+00  1.03987E+03  2.288E+00  5.529E+01  5.593E-01  8.044E-01
   1   13    8     7     2    1.4865E+02  1.8783E+00   1.4677E+02  0.000E+00  0.000E+00  0.000E+00  1.03478E+03  2.279E+00  5.526E+01  6.148E-01  1.018E+00
   1   13    7     7     3    1.4677E+02  1.5245E+00   1.4525E+02  0.000E+00  0.000E+00  0.000E+00  1.02969E+03  2.270E+00  5.522E+01  5.584E-01  9.100E-01
   1   13    6     8     1    2.2124E+02  1.1883E+00   2.2005E+02  0.000E+00  0.000E+00  0.000E+00  1.02513E+03  3.255E+00  4.720E+01  4.810E-01  8.235E-01
   1   13    5     8     2    2.2005E+02  3.4983E-01   2.1970E+02  0.000E+00  0.000E+00  0.000E+00  1.01888E+03  3.251E+00  4.714E+01  4.804E-01  2.427E-01
   1   13    4     8     3    2.1970E+02 -2.0020E+00   2.2170E+02  0.000E+00  0.000E+00  0.000E+00  1.01263E+03  3.256E+00  4.721E+01  4.811E+00 -1.387E-01
   1   13    3     8     4    2.2170E+02 -3.3866E+00   2.2509E+02  0.000E+00  0.000E+00  0.000E+00  1.00640E+03  3.271E+00  4.742E+01  4.833E+00 -2.336E-01
   1   13    2     8     5    2.2509E+02 -2.3852E+00   2.2747E+02  0.000E+00  0.000E+00  0.000E+00  1.00016E+03  3.286E+00  4.765E+01  4.856E+00 -1.637E-01
   1   13    1     8     6    2.2747E+02 -1.8085E+00   2.2928E+02  0.000E+00  0.000E+00  0.000E+00  9.95173E+02  3.298E+00  4.782E+01  2.924E+00 -2.062E-01
   1    8    6     9     1    0.0000E+00  0.0000E+00   0.0000E+00  0.000E+00  0.000E+00  0.000E+00  1.07875E+03  0.000E+00  4.000E+00  0.000E+00  1.000E+00
   1    8    5     9     2    0.0000E+00  0.0000E+00   0.0000E+00  0.000E+00  0.000E+00  0.000E+00  1.07825E+03  0.000E+00  4.000E+00  0.000E+00  1.000E+00





UNSATURATED ZONE PACKAGE VOLUMETRIC BUDGET FOR  TIME STEP    30 STRESS PERIOD   40
  ------------------------------------------------------------------------------



     CUMULATIVE VOLUMES      L**3       RATES FOR THIS TIME STEP      L**3/T
     ------------------                 ------------------------

           IN:                                      IN:
           ---                                      ---
        INFILTRATION =  1517334048.9128          INFILTRATION =           0.8475

          OUT:                                     OUT:
          ----                                     ----
              UZF ET =  1289399537.3517                UZF ET =           0.7500
        UZF RECHARGE =    54057874.8314          UZF RECHARGE =           0.0100

            IN - OUT =   173876636.7297              IN - OUT =       8.7508E-02

          STORAGE:                                 STORAGE:
          --------                                 --------
      STORAGE CHANGE =   174031749.2250        STORAGE CHANGE =       8.7508E-02

 PERCENT DISCREPANCY IS DIFFERENCE BETWEEN IN-OUT MINUS CHANGE IN STORAGE
 DIVIDED BY THE AVERAGE OF IN AND OUT TIMES 100

 PERCENT DISCREPANCY =          -0.00     PERCENT DISCREPANCY =           0.00






1
  VOLUMETRIC BUDGET FOR AGRICULTURAL FIELDS AT  END OF TIME STEP   30, STRESS PERIOD  40
  ------------------------------------------------------------------------------

     CUMULATIVE VOLUMES      L**3       RATES FOR THIS TIME STEP      L**3/T
     ------------------                 ------------------------

           IN:                                      IN:
           ---                                      ---
           AG WELLS      =   463900064.0000             AG WELLS      =           0.0000
      DIVERSION SEGMENTS =   966468928.0000        DIVERSION SEGMENTS =           0.0000
           GW IRRIGATION =           0.0000             GW IRRIGATION =           0.0000
           SW IRRIGATION =           0.0000             SW IRRIGATION =           0.0000
        SYSTEM LOSSES GW =           0.0000          SYSTEM LOSSES GW =           0.0000
        SYSTEM LOSSES SW =           0.0000          SYSTEM LOSSES SW =           0.0000

                TOTAL IN =  1430369024.0000                  TOTAL IN =           0.0000

          OUT:                                     OUT:
          ----                                     ----
           AG WELLS      =           0.0000             AG WELLS      =           0.0000
      DIVERSION SEGMENTS =           0.0000        DIVERSION SEGMENTS =           0.0000
           GW IRRIGATION =   463900064.0000             GW IRRIGATION =           0.0000
           SW IRRIGATION =   966488192.0000             SW IRRIGATION =           0.0000
        SYSTEM LOSSES GW =           0.0000          SYSTEM LOSSES GW =           0.0000
        SYSTEM LOSSES SW =           0.0000          SYSTEM LOSSES SW =           0.0000

               TOTAL OUT =  1430388224.0000                 TOTAL OUT =           0.0000

                IN - OUT =      -19200.0000                  IN - OUT =           0.0000

     PERCENT DISCREPANCY =          -0.00         PERCENT DISCREPANCY =           0.00



1
  VOLUMETRIC BUDGET FOR ENTIRE MODEL AT END OF TIME STEP   30, STRESS PERIOD  40
  ------------------------------------------------------------------------------

     CUMULATIVE VOLUMES      L**3       RATES FOR THIS TIME STEP      L**3/T
     ------------------                 ------------------------

           IN:                                      IN:
           ---                                      ---
             STORAGE     =   779891968.0000               STORAGE     =           0.6091
       CONSTANT HEAD     =           0.0000         CONSTANT HEAD     =           0.0000
     HEAD DEP BOUNDS     =    29357466.0000       HEAD DEP BOUNDS     =           0.2867
      STREAM LEAKAGE     =  1232935040.0000        STREAM LEAKAGE     =          13.7993
        UZF RECHARGE     =    54057856.0000          UZF RECHARGE     =       9.9925E-03
               GW ET     =           0.0000                 GW ET     =           0.0000
     SURFACE LEAKAGE     =           0.0000       SURFACE LEAKAGE     =           0.0000
           AG WELLS      =           0.0000             AG WELLS      =           0.0000

                TOTAL IN =  2096242304.0000                  TOTAL IN =          14.7050

          OUT:                                     OUT:
          ----                                     ----
             STORAGE     =   507474560.0000               STORAGE     =           4.8257
       CONSTANT HEAD     =           0.0000         CONSTANT HEAD     =           0.0000
     HEAD DEP BOUNDS     =    29832478.0000       HEAD DEP BOUNDS     =           0.2961
      STREAM LEAKAGE     =  1092223488.0000        STREAM LEAKAGE     =           9.5823
        UZF RECHARGE     =           0.0000          UZF RECHARGE     =           0.0000
               GW ET     =     2820648.7500                 GW ET     =       2.1494E-03
     SURFACE LEAKAGE     =           0.0000       SURFACE LEAKAGE     =           0.0000
           AG WELLS      =   463900064.0000             AG WELLS      =           0.0000

               TOTAL OUT =  2096251136.0000                 TOTAL OUT =          14.7062

                IN - OUT =       -8832.0000                  IN - OUT =      -1.1778E-03

     PERCENT DISCREPANCY =          -0.00         PERCENT DISCREPANCY =          -0.01






         TIME SUMMARY AT END OF TIME STEP   30 IN STRESS PERIOD   40
                    SECONDS     MINUTES      HOURS       DAYS        YEARS
                    -----------------------------------------------------------
   TIME STEP LENGTH  87667.      1461.1      24.352      1.0147     2.77799E-03
 STRESS PERIOD TIME 2.63000E+06  43833.      730.56      30.440     8.33397E-02
         TOTAL TIME 1.02656E+08 1.71093E+06  28515.      1188.1      3.2530    
1
1
                            STRESS PERIOD NO.   41, LENGTH =   2630000.    
                            -----------------------------------------------

                              NUMBER OF TIME STEPS =    30

                               MULTIPLIER FOR DELT =     1.000

                            INITIAL TIME STEP SIZE =   87666.66    

 REUSING NON-PARAMETER GHB CELLS FROM LAST STRESS PERIOD

      2 GHB CELLS

 REUSING STREAM SEGMENT DATA FROM LAST STRESS PERIOD



            AREAL INFILTRATION RATE
 READING ON UNIT   19 WITH FORMAT: (FREE)              

            1           2           3           4           5           6           7           8           9          10
 ........................................................................................................................
   1   1.0000E-10  2.0000E-10   0.000       0.000       0.000       0.000       0.000       0.000       0.000       0.000    
   2   2.0000E-10  1.0000E-10  2.0000E-10   0.000       0.000      8.0000E-10  8.0000E-10  5.0000E-10   0.000       0.000    
   3    0.000      5.0000E-10  1.0000E-10  1.0000E-10  8.0000E-10  8.0000E-10  5.0000E-10  5.0000E-10   0.000       0.000    
   4   8.0000E-10  5.0000E-10  1.0000E-10  1.0000E-10  1.0000E-10  1.0000E-10  1.0000E-10  1.0000E-10  2.0000E-10   0.000    
   5   8.0000E-10  5.0000E-10  1.0000E-10  1.0000E-10  1.0000E-10  1.0000E-10  1.0000E-10  1.0000E-10  1.0000E-10  1.0000E-10
   6   8.0000E-10  5.0000E-10  5.0000E-10  2.0000E-10  2.0000E-10  1.0000E-10  1.0000E-10  1.0000E-10  1.0000E-10  5.0000E-10
   7   8.0000E-10  5.0000E-10  5.0000E-10  2.0000E-10  2.0000E-10  1.0000E-10  1.0000E-10  2.0000E-10  2.0000E-10   0.000    
   8    0.000      5.0000E-10  5.0000E-10  2.0000E-10  2.0000E-10  1.0000E-10  1.0000E-10  2.0000E-10  5.0000E-10   0.000    
   9    0.000      5.0000E-10  5.0000E-10  2.0000E-10  2.0000E-10  1.0000E-10  1.0000E-10  2.0000E-10  5.0000E-10   0.000    
  10    0.000      5.0000E-10  5.0000E-10  2.0000E-10  2.0000E-10  1.0000E-10  1.0000E-10  2.0000E-10  5.0000E-10  8.0000E-10
  11    0.000      1.0000E-10  1.0000E-10  1.0000E-10  1.0000E-10  1.0000E-10  1.0000E-10  2.0000E-10  5.0000E-10   0.000    
  12   1.0000E-10  1.0000E-10  1.0000E-10  1.0000E-10  1.0000E-10  1.0000E-10  1.0000E-10  1.0000E-10  2.0000E-10   0.000    
  13   1.0000E-10  1.0000E-10  2.0000E-10  2.0000E-10  2.0000E-10  2.0000E-10  2.0000E-10  1.0000E-10  1.0000E-10   0.000    
  14    0.000      2.0000E-10  5.0000E-10  5.0000E-10  5.0000E-10  5.0000E-10  5.0000E-10  2.0000E-10  1.0000E-10   0.000    
  15    0.000       0.000      8.0000E-10  8.0000E-10  8.0000E-10  8.0000E-10   0.000       0.000       0.000       0.000    

                  ET RATE =  2.500000E-08

 USING ET EXTINCTION DEPTH FROM PREVIOUS STRESS PERIOD. CURRENT PERIOD IS:      41

 USING EXTINCTION WATER CONTENT FROM PREVIOUS STRESS PERIOD. CURRENT PERIOD IS:      41

 USING AIR ENTRY PRESSURE FROM PREVIOUS STRESS PERIOD. CURRENT PERIOD IS:      41

 USING ROOT PRESSURE HEAD FROM PREVIOUS STRESS PERIOD. CURRENT PERIOD IS:      41

 USING ROOT ACTIVITY FROM PREVIOUS STRESS PERIOD. CURRENT PERIOD IS:      41

 PROCESSING AG STRESS PERIOD DATA

 READING AG STRESS PERIOD DATA

 READING IRRIGATION SEGMENT

 READING IRRIGATION WELL

 READING SUPPLEMENTAL WELL

 END PROCESSING AG STRESS PERIOD DATA OPTIONS
 
 SOLVING FOR HEAD 
                                                   Max.-Head-Change                         Max.-Flux-Residual
  Residual-Control   Outer-Iter.   Inner-Iter.     Column Row Layer    Maximum-Head-Change  Column Row Layer    Maximum-Flux-Residual          L2-NORM 
          0                 1           2             1    1     1       0.4348985506E-02       1    1    1         0.2258151724E+00      0.6908149200E+00
          0                 2           2             1    1     1      -0.4230383327E-03       1    1    1        -0.2258155900E-01      0.6874850495E-01
          0                 3           1             1    1     1       0.2880733599E-04       1    1    1         0.1580709421E-02      0.4802296051E-02

    ------------------------------------------------
       NWT REQUIRED            3 OUTER ITERATIONS 
       AND A TOTAL OF          5 INNER ITERATIONS.
    ------------------------------------------------

 NO OUTPUT CONTROL FOR STRESS PERIOD   41   TIME STEP    1
 
 SOLVING FOR HEAD 
                                                   Max.-Head-Change                         Max.-Flux-Residual
  Residual-Control   Outer-Iter.   Inner-Iter.     Column Row Layer    Maximum-Head-Change  Column Row Layer    Maximum-Flux-Residual          L2-NORM 
          0                 1           2             1    1     1       0.4343515480E-02       1    1    1         0.2255305183E+00      0.6840570038E+00
          0                 2           2             1    1     1      -0.4225062454E-03       1    1    1        -0.2255309339E-01      0.6807564246E-01
          0                 3           1             1    1     1       0.2877110297E-04       1    1    1         0.1578716828E-02      0.4755802821E-02

    ------------------------------------------------
       NWT REQUIRED            3 OUTER ITERATIONS 
       AND A TOTAL OF          5 INNER ITERATIONS.
    ------------------------------------------------

 NO OUTPUT CONTROL FOR STRESS PERIOD   41   TIME STEP    2
 
 SOLVING FOR HEAD 
                                                   Max.-Head-Change                         Max.-Flux-Residual
  Residual-Control   Outer-Iter.   Inner-Iter.     Column Row Layer    Maximum-Head-Change  Column Row Layer    Maximum-Flux-Residual          L2-NORM 
          0                 1           2             1    1     1       0.4338088757E-02       1    1    1         0.2252481187E+00      0.6778620200E+00
          0                 2           2             1    1     1      -0.4219783702E-03       1    1    1        -0.2252485326E-01      0.6745846874E-01
          0                 3           1             1    1     1       0.2873515632E-04       1    1    1         0.1576740013E-02      0.4712808140E-02

    ------------------------------------------------
       NWT REQUIRED            3 OUTER ITERATIONS 
       AND A TOTAL OF          5 INNER ITERATIONS.
    ------------------------------------------------

 NO OUTPUT CONTROL FOR STRESS PERIOD   41   TIME STEP    3
 
 SOLVING FOR HEAD 
                                                   Max.-Head-Change                         Max.-Flux-Residual
  Residual-Control   Outer-Iter.   Inner-Iter.     Column Row Layer    Maximum-Head-Change  Column Row Layer    Maximum-Flux-Residual          L2-NORM 
          0                 1           2             1    1     1       0.4253666444E-02       1    1    1         0.2208620941E+00      0.6575700049E+00
          0                 2           2             1    1     1      -0.4137663513E-03       1    1    1        -0.2208624883E-01      0.6546376637E-01
          0                 3           1             1    1     1       0.2817594874E-04       1    1    1         0.1546037712E-02      0.4577243644E-02

    ------------------------------------------------
       NWT REQUIRED            3 OUTER ITERATIONS 
       AND A TOTAL OF          5 INNER ITERATIONS.
    ------------------------------------------------

 NO OUTPUT CONTROL FOR STRESS PERIOD   41   TIME STEP    4
 
 SOLVING FOR HEAD 
                                                   Max.-Head-Change                         Max.-Flux-Residual
  Residual-Control   Outer-Iter.   Inner-Iter.     Column Row Layer    Maximum-Head-Change  Column Row Layer    Maximum-Flux-Residual          L2-NORM 
          0                 1           2             4   13     1      -0.5935470736E-02       4   13    1        -0.3507746255E+00      0.7688959602E+00
          0                 2           2             4   13     1       0.5725633600E-03       4   13    1         0.3479280010E-01      0.7560596483E-01
          0                 3           1             4   13     1      -0.3855189893E-04       4   13    1        -0.2408823559E-02      0.5193508595E-02

    ------------------------------------------------
       NWT REQUIRED            3 OUTER ITERATIONS 
       AND A TOTAL OF          5 INNER ITERATIONS.
    ------------------------------------------------

 NO OUTPUT CONTROL FOR STRESS PERIOD   41   TIME STEP    5
 
 SOLVING FOR HEAD 
                                                   Max.-Head-Change                         Max.-Flux-Residual
  Residual-Control   Outer-Iter.   Inner-Iter.     Column Row Layer    Maximum-Head-Change  Column Row Layer    Maximum-Flux-Residual          L2-NORM 
          0                 1           2             3   13     1      -0.5228400505E-02       4   13    1        -0.3084505691E+00      0.7249143711E+00
          0                 2           2             4   13     1       0.5034253646E-03       4   13    1         0.3059656357E-01      0.7134368905E-01
          0                 3           1             4   13     1      -0.3387945283E-04       4   13    1        -0.2117230075E-02      0.4907855023E-02

    ------------------------------------------------
       NWT REQUIRED            3 OUTER ITERATIONS 
       AND A TOTAL OF          5 INNER ITERATIONS.
    ------------------------------------------------

 NO OUTPUT CONTROL FOR STRESS PERIOD   41   TIME STEP    6
 
 SOLVING FOR HEAD 
                                                   Max.-Head-Change                         Max.-Flux-Residual
  Residual-Control   Outer-Iter.   Inner-Iter.     Column Row Layer    Maximum-Head-Change  Column Row Layer    Maximum-Flux-Residual          L2-NORM 
          0                 1           2             3   13     1      -0.4673128013E-02       3   13    1        -0.2720089916E+00      0.6875675575E+00
          0                 2           2             3   13     1       0.4440293938E-03       4   13    1         0.2690308870E-01      0.6772918073E-01
          0                 3           1             4   13     1      -0.2980254165E-04       4   13    1        -0.1862856632E-02      0.4667350376E-02

    ------------------------------------------------
       NWT REQUIRED            3 OUTER ITERATIONS 
       AND A TOTAL OF          5 INNER ITERATIONS.
    ------------------------------------------------

 NO OUTPUT CONTROL FOR STRESS PERIOD   41   TIME STEP    7
 
 SOLVING FOR HEAD 
                                                   Max.-Head-Change                         Max.-Flux-Residual
  Residual-Control   Outer-Iter.   Inner-Iter.     Column Row Layer    Maximum-Head-Change  Column Row Layer    Maximum-Flux-Residual          L2-NORM 
          0                 1           2             3   13     1      -0.4176126726E-02       3   13    1        -0.2431155317E+00      0.6559783519E+00
          0                 2           2             3   13     1       0.3969166791E-03       3   13    1         0.2375708893E-01      0.6467525339E-01
          0                 3           1             4   13     1      -0.2618980487E-04       4   13    1        -0.1637478474E-02      0.4463683623E-02

    ------------------------------------------------
       NWT REQUIRED            3 OUTER ITERATIONS 
       AND A TOTAL OF          5 INNER ITERATIONS.
    ------------------------------------------------

 NO OUTPUT CONTROL FOR STRESS PERIOD   41   TIME STEP    8
 
 SOLVING FOR HEAD 
                                                   Max.-Head-Change                         Max.-Flux-Residual
  Residual-Control   Outer-Iter.   Inner-Iter.     Column Row Layer    Maximum-Head-Change  Column Row Layer    Maximum-Flux-Residual          L2-NORM 
          0                 1           2             3   13     1      -0.3731241779E-02       3   13    1        -0.2172514627E+00      0.6293315150E+00
          0                 2           2             3   13     1       0.3547518506E-03       3   13    1         0.2123690706E-01      0.6210305451E-01
          0                 3           1             3   13     1      -0.2340536075E-04       3   13    1        -0.1440550270E-02      0.4293752696E-02

    ------------------------------------------------
       NWT REQUIRED            3 OUTER ITERATIONS 
       AND A TOTAL OF          5 INNER ITERATIONS.
    ------------------------------------------------

 NO OUTPUT CONTROL FOR STRESS PERIOD   41   TIME STEP    9
 
 SOLVING FOR HEAD 
                                                   Max.-Head-Change                         Max.-Flux-Residual
  Residual-Control   Outer-Iter.   Inner-Iter.     Column Row Layer    Maximum-Head-Change  Column Row Layer    Maximum-Flux-Residual          L2-NORM 
          0                 1           2             3   13     1      -0.3333108958E-02       3   13    1        -0.1941051160E+00      0.6069340077E+00
          0                 2           2             3   13     1       0.3171132082E-03       3   13    1         0.1898731785E-01      0.5994499541E-01
          0                 3           1             1    1     1       0.2106589196E-04       3   13    1        -0.1294223149E-02      0.4151639286E-02

    ------------------------------------------------
       NWT REQUIRED            3 OUTER ITERATIONS 
       AND A TOTAL OF          5 INNER ITERATIONS.
    ------------------------------------------------

 NO OUTPUT CONTROL FOR STRESS PERIOD   41   TIME STEP   10
 
 SOLVING FOR HEAD 
                                                   Max.-Head-Change                         Max.-Flux-Residual
  Residual-Control   Outer-Iter.   Inner-Iter.     Column Row Layer    Maximum-Head-Change  Column Row Layer    Maximum-Flux-Residual          L2-NORM 
          0                 1           2             1    1     1       0.3176865947E-02       3   13    1        -0.1733827587E+00      0.5881432100E+00
          0                 2           2             1    1     1      -0.3090227168E-03       3   13    1         0.1695988047E-01      0.5813235853E-01
          0                 3           1             1    1     1       0.2104329889E-04       1    1    1         0.1154462353E-02      0.4030218443E-02

    ------------------------------------------------
       NWT REQUIRED            3 OUTER ITERATIONS 
       AND A TOTAL OF          5 INNER ITERATIONS.
    ------------------------------------------------

 NO OUTPUT CONTROL FOR STRESS PERIOD   41   TIME STEP   11
 
 SOLVING FOR HEAD 
                                                   Max.-Head-Change                         Max.-Flux-Residual
  Residual-Control   Outer-Iter.   Inner-Iter.     Column Row Layer    Maximum-Head-Change  Column Row Layer    Maximum-Flux-Residual          L2-NORM 
          0                 1           2             1    1     1       0.3173489572E-02       1    1    1         0.1647473214E+00      0.5723931170E+00
          0                 2           2             1    1     1      -0.3086942865E-03       1    1    1        -0.1647475121E-01      0.5661562342E-01
          0                 3           1             1    1     1       0.2102093351E-04       1    1    1         0.1153232901E-02      0.3929683653E-02

    ------------------------------------------------
       NWT REQUIRED            3 OUTER ITERATIONS 
       AND A TOTAL OF          5 INNER ITERATIONS.
    ------------------------------------------------

 NO OUTPUT CONTROL FOR STRESS PERIOD   41   TIME STEP   12
 
 SOLVING FOR HEAD 
                                                   Max.-Head-Change                         Max.-Flux-Residual
  Residual-Control   Outer-Iter.   Inner-Iter.     Column Row Layer    Maximum-Head-Change  Column Row Layer    Maximum-Flux-Residual          L2-NORM 
          0                 1           2             1    1     1       0.3170124216E-02       1    1    1         0.1645722613E+00      0.5592056218E+00
          0                 2           2             1    1     1      -0.3083669281E-03       1    1    1        -0.1645724513E-01      0.5534703216E-01
          0                 3           1             1    1     1       0.2099864173E-04       1    1    1         0.1152007474E-02      0.3845626550E-02

    ------------------------------------------------
       NWT REQUIRED            3 OUTER ITERATIONS 
       AND A TOTAL OF          5 INNER ITERATIONS.
    ------------------------------------------------

 NO OUTPUT CONTROL FOR STRESS PERIOD   41   TIME STEP   13
 
 SOLVING FOR HEAD 
                                                   Max.-Head-Change                         Max.-Flux-Residual
  Residual-Control   Outer-Iter.   Inner-Iter.     Column Row Layer    Maximum-Head-Change  Column Row Layer    Maximum-Flux-Residual          L2-NORM 
          0                 1           2             1    1     1       0.3166746429E-02       1    1    1         0.1643965588E+00      0.5481679521E+00
          0                 2           2             1    1     1      -0.3080383603E-03       1    1    1        -0.1643967480E-01      0.5428517787E-01
          0                 3           1             1    1     1       0.2097626758E-04       1    1    1         0.1150777555E-02      0.3775986613E-02

    ------------------------------------------------
       NWT REQUIRED            3 OUTER ITERATIONS 
       AND A TOTAL OF          5 INNER ITERATIONS.
    ------------------------------------------------

 NO OUTPUT CONTROL FOR STRESS PERIOD   41   TIME STEP   14
 
 SOLVING FOR HEAD 
                                                   Max.-Head-Change                         Max.-Flux-Residual
  Residual-Control   Outer-Iter.   Inner-Iter.     Column Row Layer    Maximum-Head-Change  Column Row Layer    Maximum-Flux-Residual          L2-NORM 
          0                 1           2             1    1     1       0.3163402977E-02       1    1    1         0.1642226394E+00      0.5389059506E+00
          0                 2           2             1    1     1      -0.3077131321E-03       1    1    1        -0.1642228276E-01      0.5339463358E-01
          0                 3           1             1    1     1       0.2095412064E-04       1    1    1         0.1149560108E-02      0.3717355726E-02

    ------------------------------------------------
       NWT REQUIRED            3 OUTER ITERATIONS 
       AND A TOTAL OF          5 INNER ITERATIONS.
    ------------------------------------------------

 NO OUTPUT CONTROL FOR STRESS PERIOD   41   TIME STEP   15
 
 SOLVING FOR HEAD 
                                                   Max.-Head-Change                         Max.-Flux-Residual
  Residual-Control   Outer-Iter.   Inner-Iter.     Column Row Layer    Maximum-Head-Change  Column Row Layer    Maximum-Flux-Residual          L2-NORM 
          0                 1           2             1    1     1       0.3160047007E-02       1    1    1         0.1640480724E+00      0.5311253006E+00
          0                 2           2             1    1     1      -0.3073866868E-03       1    1    1        -0.1640482600E-01      0.5264609087E-01
          0                 3           1             1    1     1       0.2093189087E-04       1    1    1         0.1148338133E-02      0.3667856842E-02

    ------------------------------------------------
       NWT REQUIRED            3 OUTER ITERATIONS 
       AND A TOTAL OF          5 INNER ITERATIONS.
    ------------------------------------------------

 NO OUTPUT CONTROL FOR STRESS PERIOD   41   TIME STEP   16
 
 SOLVING FOR HEAD 
                                                   Max.-Head-Change                         Max.-Flux-Residual
  Residual-Control   Outer-Iter.   Inner-Iter.     Column Row Layer    Maximum-Head-Change  Column Row Layer    Maximum-Flux-Residual          L2-NORM 
          0                 1           2             1    1     1       0.3156725239E-02       1    1    1         0.1638752843E+00      0.5245722193E+00
          0                 2           2             1    1     1      -0.3070635682E-03       1    1    1        -0.1638754712E-01      0.5201689516E-01
          0                 3           1             1    1     1       0.2090988783E-04       1    1    1         0.1147128615E-02      0.3626835695E-02

    ------------------------------------------------
       NWT REQUIRED            3 OUTER ITERATIONS 
       AND A TOTAL OF          5 INNER ITERATIONS.
    ------------------------------------------------

 NO OUTPUT CONTROL FOR STRESS PERIOD   41   TIME STEP   17
 
 SOLVING FOR HEAD 
                                                   Max.-Head-Change                         Max.-Flux-Residual
  Residual-Control   Outer-Iter.   Inner-Iter.     Column Row Layer    Maximum-Head-Change  Column Row Layer    Maximum-Flux-Residual          L2-NORM 
          0                 1           2             1    1     1       0.3153390840E-02       1    1    1         0.1637018414E+00      0.5190260903E+00
          0                 2           2             1    1     1      -0.3067392215E-03       1    1    1        -0.1637020277E-01      0.5148156790E-01
          0                 3           1             1    1     1       0.2088780124E-04       1    1    1         0.1145914521E-02      0.3590719831E-02

    ------------------------------------------------
       NWT REQUIRED            3 OUTER ITERATIONS 
       AND A TOTAL OF          5 INNER ITERATIONS.
    ------------------------------------------------

 NO OUTPUT CONTROL FOR STRESS PERIOD   41   TIME STEP   18
 
 SOLVING FOR HEAD 
                                                   Max.-Head-Change                         Max.-Flux-Residual
  Residual-Control   Outer-Iter.   Inner-Iter.     Column Row Layer    Maximum-Head-Change  Column Row Layer    Maximum-Flux-Residual          L2-NORM 
          0                 1           2             1    1     1       0.3150090567E-02       1    1    1         0.1635301720E+00      0.5143189587E+00
          0                 2           2             1    1     1      -0.3064181933E-03       1    1    1        -0.1635303573E-01      0.5102821979E-01
          0                 3           1             1    1     1       0.2086594044E-04       1    1    1         0.1144712823E-02      0.3560358370E-02

    ------------------------------------------------
       NWT REQUIRED            3 OUTER ITERATIONS 
       AND A TOTAL OF          5 INNER ITERATIONS.
    ------------------------------------------------

 NO OUTPUT CONTROL FOR STRESS PERIOD   41   TIME STEP   19
 
 SOLVING FOR HEAD 
                                                   Max.-Head-Change                         Max.-Flux-Residual
  Residual-Control   Outer-Iter.   Inner-Iter.     Column Row Layer    Maximum-Head-Change  Column Row Layer    Maximum-Flux-Residual          L2-NORM 
          0                 1           2             1    1     1       0.3146777552E-02       1    1    1         0.1633578434E+00      0.5102957221E+00
          0                 2           2             1    1     1      -0.3060959262E-03       1    1    1        -0.1633580280E-01      0.5063982674E-01
          0                 3           1             1    1     1       0.2084399515E-04       1    1    1         0.1143506514E-02      0.3534517893E-02

    ------------------------------------------------
       NWT REQUIRED            3 OUTER ITERATIONS 
       AND A TOTAL OF          5 INNER ITERATIONS.
    ------------------------------------------------

 NO OUTPUT CONTROL FOR STRESS PERIOD   41   TIME STEP   20
 
 SOLVING FOR HEAD 
                                                   Max.-Head-Change                         Max.-Flux-Residual
  Residual-Control   Outer-Iter.   Inner-Iter.     Column Row Layer    Maximum-Head-Change  Column Row Layer    Maximum-Flux-Residual          L2-NORM 
          0                 1           2             1    1     1       0.3143498560E-02       1    1    1         0.1631872829E+00      0.5068438565E+00
          0                 2           2             1    1     1      -0.3057769686E-03       1    1    1        -0.1631874667E-01      0.5030656214E-01
          0                 3           1             1    1     1       0.2082227541E-04       1    1    1         0.1142312593E-02      0.3512840831E-02

    ------------------------------------------------
       NWT REQUIRED            3 OUTER ITERATIONS 
       AND A TOTAL OF          5 INNER ITERATIONS.
    ------------------------------------------------

 NO OUTPUT CONTROL FOR STRESS PERIOD   41   TIME STEP   21
 
 SOLVING FOR HEAD 
                                                   Max.-Head-Change                         Max.-Flux-Residual
  Residual-Control   Outer-Iter.   Inner-Iter.     Column Row Layer    Maximum-Head-Change  Column Row Layer    Maximum-Flux-Residual          L2-NORM 
          0                 1           2             1    1     1       0.3140206718E-02       1    1    1         0.1630160575E+00      0.5038548992E+00
          0                 2           2             1    1     1      -0.3054567605E-03       1    1    1        -0.1630162404E-01      0.5001724907E-01
          0                 3           1             1    1     1       0.2080047046E-04       1    1    1         0.1141113998E-02      0.3493300091E-02

    ------------------------------------------------
       NWT REQUIRED            3 OUTER ITERATIONS 
       AND A TOTAL OF          5 INNER ITERATIONS.
    ------------------------------------------------

 NO OUTPUT CONTROL FOR STRESS PERIOD   41   TIME STEP   22
 
 SOLVING FOR HEAD 
                                                   Max.-Head-Change                         Max.-Flux-Residual
  Residual-Control   Outer-Iter.   Inner-Iter.     Column Row Layer    Maximum-Head-Change  Column Row Layer    Maximum-Flux-Residual          L2-NORM 
          0                 1           2             1    1     1       0.3136948799E-02       1    1    1         0.1628465949E+00      0.5012493264E+00
          0                 2           2             1    1     1      -0.3051398528E-03       1    1    1        -0.1628467773E-01      0.4976515049E-01
          0                 3           1             1    1     1       0.2077888988E-04       1    1    1         0.1139927749E-02      0.3476416215E-02

    ------------------------------------------------
       NWT REQUIRED            3 OUTER ITERATIONS 
       AND A TOTAL OF          5 INNER ITERATIONS.
    ------------------------------------------------

 NO OUTPUT CONTROL FOR STRESS PERIOD   41   TIME STEP   23
 
 SOLVING FOR HEAD 
                                                   Max.-Head-Change                         Max.-Flux-Residual
  Residual-Control   Outer-Iter.   Inner-Iter.     Column Row Layer    Maximum-Head-Change  Column Row Layer    Maximum-Flux-Residual          L2-NORM 
          0                 1           2             1    1     1       0.3133677895E-02       1    1    1         0.1626764619E+00      0.4989677809E+00
          0                 2           2             1    1     1      -0.3048216823E-03       1    1    1        -0.1626766435E-01      0.4954347280E-01
          0                 3           1             1    1     1       0.2075722410E-04       1    1    1         0.1138736828E-02      0.3461358008E-02

    ------------------------------------------------
       NWT REQUIRED            3 OUTER ITERATIONS 
       AND A TOTAL OF          5 INNER ITERATIONS.
    ------------------------------------------------

 NO OUTPUT CONTROL FOR STRESS PERIOD   41   TIME STEP   24
 
 SOLVING FOR HEAD 
                                                   Max.-Head-Change                         Max.-Flux-Residual
  Residual-Control   Outer-Iter.   Inner-Iter.     Column Row Layer    Maximum-Head-Change  Column Row Layer    Maximum-Flux-Residual          L2-NORM 
          0                 1           2             1    1     1       0.3130417427E-02       1    1    1         0.1625068703E+00      0.4969400845E+00
          0                 2           2             1    1     1      -0.3045045267E-03       1    1    1        -0.1625070512E-01      0.4934644585E-01
          0                 3           1             1    1     1       0.2073562696E-04       1    1    1         0.1137549687E-02      0.3448236585E-02

    ------------------------------------------------
       NWT REQUIRED            3 OUTER ITERATIONS 
       AND A TOTAL OF          5 INNER ITERATIONS.
    ------------------------------------------------

 NO OUTPUT CONTROL FOR STRESS PERIOD   41   TIME STEP   25
 
 SOLVING FOR HEAD 
                                                   Max.-Head-Change                         Max.-Flux-Residual
  Residual-Control   Outer-Iter.   Inner-Iter.     Column Row Layer    Maximum-Head-Change  Column Row Layer    Maximum-Flux-Residual          L2-NORM 
          0                 1           2             1    1     1       0.3127190718E-02       1    1    1         0.1623390349E+00      0.4951369559E+00
          0                 2           2             1    1     1      -0.3041906548E-03       1    1    1        -0.1623392151E-01      0.4917063360E-01
          0                 3           1             1    1     1       0.2071425347E-04       1    1    1         0.1136374832E-02      0.3436396827E-02

    ------------------------------------------------
       NWT REQUIRED            3 OUTER ITERATIONS 
       AND A TOTAL OF          5 INNER ITERATIONS.
    ------------------------------------------------

 NO OUTPUT CONTROL FOR STRESS PERIOD   41   TIME STEP   26
 
 SOLVING FOR HEAD 
                                                   Max.-Head-Change                         Max.-Flux-Residual
  Residual-Control   Outer-Iter.   Inner-Iter.     Column Row Layer    Maximum-Head-Change  Column Row Layer    Maximum-Flux-Residual          L2-NORM 
          0                 1           2             1    1     1       0.2962935698E-02       1    1    1         0.1538061259E+00      0.4972997663E+00
          0                 2           2             1    1     1      -0.2882130834E-03       1    1    1        -0.1538062821E-01      0.4929791337E-01
          0                 3           1             1    1     1       0.1962623993E-04       1    1    1         0.1076644279E-02      0.3436825477E-02

    ------------------------------------------------
       NWT REQUIRED            3 OUTER ITERATIONS 
       AND A TOTAL OF          5 INNER ITERATIONS.
    ------------------------------------------------

 NO OUTPUT CONTROL FOR STRESS PERIOD   41   TIME STEP   27
 
 SOLVING FOR HEAD 
                                                   Max.-Head-Change                         Max.-Flux-Residual
  Residual-Control   Outer-Iter.   Inner-Iter.     Column Row Layer    Maximum-Head-Change  Column Row Layer    Maximum-Flux-Residual          L2-NORM 
          0                 1           2             2   13     1      -0.3869183342E-02       2   13    1        -0.2185626397E+00      0.5817769428E+00
          0                 2           2             2   13     1       0.3614765550E-03       2   13    1         0.2099017165E-01      0.5722558640E-01
          0                 3           1             2   13     1      -0.2324312465E-04       4   13    1        -0.1404053842E-02      0.3939327139E-02

    ------------------------------------------------
       NWT REQUIRED            3 OUTER ITERATIONS 
       AND A TOTAL OF          5 INNER ITERATIONS.
    ------------------------------------------------

 NO OUTPUT CONTROL FOR STRESS PERIOD   41   TIME STEP   28
 
 SOLVING FOR HEAD 
                                                   Max.-Head-Change                         Max.-Flux-Residual
  Residual-Control   Outer-Iter.   Inner-Iter.     Column Row Layer    Maximum-Head-Change  Column Row Layer    Maximum-Flux-Residual          L2-NORM 
          0                 1           2             2   13     1      -0.3567433461E-02       2   13    1        -0.2015259770E+00      0.5590646259E+00
          0                 2           2             2   13     1       0.3336301560E-03       2   13    1         0.1937410762E-01      0.5485199452E-01
          0                 3           1             2   13     1      -0.2149371050E-04       2   13    1        -0.1282939636E-02      0.3782828092E-02

    ------------------------------------------------
       NWT REQUIRED            3 OUTER ITERATIONS 
       AND A TOTAL OF          5 INNER ITERATIONS.
    ------------------------------------------------

 NO OUTPUT CONTROL FOR STRESS PERIOD   41   TIME STEP   29
 
 SOLVING FOR HEAD 
                                                   Max.-Head-Change                         Max.-Flux-Residual
  Residual-Control   Outer-Iter.   Inner-Iter.     Column Row Layer    Maximum-Head-Change  Column Row Layer    Maximum-Flux-Residual          L2-NORM 
          0                 1           2             2   13     1      -0.3288792676E-02       2   13    1        -0.1857916244E+00      0.5397877521E+00
          0                 2           2             2   13     1       0.3077848073E-03       2   13    1         0.1787388650E-01      0.5318506598E-01
          0                 3           1             2   13     1      -0.1982714796E-04       2   13    1        -0.1183496570E-02      0.3672987000E-02

    ------------------------------------------------
       NWT REQUIRED            3 OUTER ITERATIONS 
       AND A TOTAL OF          5 INNER ITERATIONS.
    ------------------------------------------------

 NO OUTPUT CONTROL FOR STRESS PERIOD   41   TIME STEP   30



 STREAM LISTING     PERIOD     41   STEP       30

 LAYER ROW COL. STREAM  RCH.  FLOW INTO     FLOW TO   FLOW OUT OF   OVRLND.     DIRECT     STREAM       STREAM     STREAM     STREAM   STREAMBED  STREAMBED
                SEG.NO.  NO.  STRM. RCH.    AQUIFER    STRM. RCH.    RUNOFF     PRECIP       ET          HEAD       DEPTH      WIDTH   CONDCTNC.   GRADIENT

   1    1    1     1     1    4.7249E+01  3.2762E-01   4.6921E+01  0.000E+00  0.000E+00  0.000E+00  1.09443E+03  1.381E+00  1.662E+01  7.477E-02  1.460E+00
   1    2    2     1     2    4.6921E+01  5.0759E-01   4.6413E+01  0.000E+00  0.000E+00  0.000E+00  1.08944E+03  1.379E+00  1.656E+01  1.159E-01  1.460E+00
   1    3    3     1     3    4.6413E+01  4.3309E-01   4.5980E+01  0.000E+00  0.000E+00  0.000E+00  1.08379E+03  1.376E+00  1.650E+01  9.898E-02  1.459E+00
   1    3    4     1     4    4.5980E+01  3.9899E-01   4.5581E+01  0.000E+00  0.000E+00  0.000E+00  1.07878E+03  1.373E+00  1.644E+01  9.124E-02  1.458E+00
   1    4    5     2     1    4.3581E+01  3.6514E-01   4.3216E+01  0.000E+00  0.000E+00  0.000E+00  1.07362E+03  1.681E+00  1.200E+01  7.800E-02  1.560E+00
   1    5    6     2     2    4.3216E+01  2.8042E-01   4.2936E+01  0.000E+00  0.000E+00  0.000E+00  1.06818E+03  1.674E+00  1.200E+01  6.000E-02  1.558E+00
   1    6    6     2     3    4.2936E+01  2.8003E-01   4.2656E+01  0.000E+00  0.000E+00  0.000E+00  1.06346E+03  1.667E+00  1.200E+01  6.000E-02  1.556E+00
   1    7    6     2     4    4.2656E+01  2.7964E-01   4.2376E+01  0.000E+00  0.000E+00  0.000E+00  1.05874E+03  1.661E+00  1.200E+01  6.000E-02  1.554E+00
   1    8    6     2     5    4.2376E+01  2.7924E-01   4.2097E+01  0.000E+00  0.000E+00  0.000E+00  1.05401E+03  1.654E+00  1.200E+01  6.000E-02  1.551E+00
   1    3    5     3     1    2.0000E+00  2.8252E-01   1.7175E+00  0.000E+00  0.000E+00  0.000E+00  1.07555E+03  1.909E+00  9.636E+00  7.227E-02  1.955E+00
   1    3    6     3     2    1.7175E+00  2.4905E-01   1.4684E+00  0.000E+00  0.000E+00  0.000E+00  1.07264E+03  1.727E+00  8.909E+00  6.682E-02  1.864E+00
   1    3    7     3     3    1.4684E+00  1.9718E-01   1.2712E+00  0.000E+00  0.000E+00  0.000E+00  1.06987E+03  1.555E+00  8.218E+00  5.547E-02  1.777E+00
   1    4    8     3     4    1.2712E+00  2.2567E-01   1.0456E+00  0.000E+00  0.000E+00  0.000E+00  1.06682E+03  1.364E+00  7.455E+00  6.709E-02  1.682E+00
   1    5    8     3     5    1.0456E+00  1.5790E-01   8.8768E-01  0.000E+00  0.000E+00  0.000E+00  1.06362E+03  1.164E+00  6.655E+00  4.991E-02  1.582E+00
   1    6    8     3     6    8.8768E-01  5.5980E-02   8.3170E-01  0.000E+00  0.000E+00  0.000E+00  1.06158E+03  1.036E+00  6.145E+00  1.844E-02  1.518E+00
   1    5   10     4     1    1.0000E+01  9.0919E-02   9.9091E+00  0.000E+00  0.000E+00  0.000E+00  1.07836E+03  6.368E-01  1.000E+01  2.500E-02  1.212E+00
   1    5    9     4     2    9.9091E+00  1.8158E-01   9.7275E+00  0.000E+00  0.000E+00  0.000E+00  1.07154E+03  6.315E-01  1.000E+01  5.000E-02  1.211E+00
   1    6    8     4     3    9.7275E+00  1.2689E-01   9.6006E+00  0.000E+00  0.000E+00  0.000E+00  1.06381E+03  6.256E-01  1.000E+01  3.500E-02  1.209E+00
   1    6    8     5     1    1.0432E+01  2.2686E-01   1.0205E+01  0.000E+00  0.000E+00  0.000E+00  1.05868E+03  6.790E-01  1.542E+01  6.166E-02  1.226E+00
   1    7    7     5     2    1.0205E+01  2.7894E-01   9.9265E+00  0.000E+00  0.000E+00  0.000E+00  1.05417E+03  6.732E-01  1.519E+01  7.594E-02  1.224E+00
   1    8    7     5     3    9.9265E+00  1.9221E-01   9.7343E+00  0.000E+00  0.000E+00  0.000E+00  1.04992E+03  6.676E-01  1.497E+01  5.241E-02  1.223E+00
   1    8    6     5     4    9.7343E+00  1.3577E-01   9.5985E+00  0.000E+00  0.000E+00  0.000E+00  1.04691E+03  6.637E-01  1.482E+01  3.706E-02  1.221E+00
   1    9    6     6     1    5.1695E+01  2.9310E-01   5.1402E+01  0.000E+00  0.000E+00  0.000E+00  1.04461E+03  1.885E+00  1.200E+01  6.000E-02  1.628E+00
   1   10    7     6     2    5.1402E+01  2.9271E-01   5.1110E+01  0.000E+00  0.000E+00  0.000E+00  1.04006E+03  1.879E+00  1.200E+01  6.000E-02  1.626E+00
   1   11    7     6     3    5.1110E+01  2.9233E-01   5.0817E+01  0.000E+00  0.000E+00  0.000E+00  1.03551E+03  1.872E+00  1.200E+01  6.000E-02  1.624E+00
   1   12    7     6     4    5.0817E+01  2.9194E-01   5.0525E+01  0.000E+00  0.000E+00  0.000E+00  1.03096E+03  1.866E+00  1.200E+01  6.000E-02  1.622E+00
   1   13    7     6     5    5.0525E+01  1.9098E-02   5.0506E+01  0.000E+00  0.000E+00  0.000E+00  1.02777E+03  1.862E+00  1.200E+01  2.400E-02  2.652E-01
   1   14    9     7     1    1.5000E+02  1.3506E+00   1.4865E+02  0.000E+00  0.000E+00  0.000E+00  1.03987E+03  2.288E+00  5.529E+01  5.593E-01  8.049E-01
   1   13    8     7     2    1.4865E+02  1.8768E+00   1.4677E+02  0.000E+00  0.000E+00  0.000E+00  1.03478E+03  2.279E+00  5.526E+01  6.148E-01  1.018E+00
   1   13    7     7     3    1.4677E+02  1.5155E+00   1.4526E+02  0.000E+00  0.000E+00  0.000E+00  1.02969E+03  2.270E+00  5.522E+01  5.584E-01  9.046E-01
   1   13    6     8     1    1.9576E+02  1.0587E+00   1.9470E+02  0.000E+00  0.000E+00  0.000E+00  1.02498E+03  3.109E+00  4.509E+01  4.595E-01  7.681E-01
   1   13    5     8     2    1.9470E+02  2.5668E-01   1.9445E+02  0.000E+00  0.000E+00  0.000E+00  1.01873E+03  3.106E+00  4.503E+01  4.589E-01  1.865E-01
   1   13    4     8     3    1.9445E+02 -2.3472E+00   1.9680E+02  0.000E+00  0.000E+00  0.000E+00  1.01249E+03  3.112E+00  4.512E+01  4.598E+00 -1.702E-01
   1   13    3     8     4    1.9680E+02 -3.6317E+00   2.0043E+02  0.000E+00  0.000E+00  0.000E+00  1.00625E+03  3.130E+00  4.538E+01  4.624E+00 -2.618E-01
   1   13    2     8     5    2.0043E+02 -2.6858E+00   2.0311E+02  0.000E+00  0.000E+00  0.000E+00  1.00002E+03  3.148E+00  4.565E+01  4.652E+00 -1.925E-01
   1   13    1     8     6    2.0311E+02 -2.0717E+00   2.0518E+02  0.000E+00  0.000E+00  0.000E+00  9.95037E+02  3.162E+00  4.585E+01  2.803E+00 -2.463E-01
   1    8    6     9     1    0.0000E+00  0.0000E+00   0.0000E+00  0.000E+00  0.000E+00  0.000E+00  1.07875E+03  0.000E+00  4.000E+00  0.000E+00  1.000E+00
   1    8    5     9     2    0.0000E+00  0.0000E+00   0.0000E+00  0.000E+00  0.000E+00  0.000E+00  1.07825E+03  0.000E+00  4.000E+00  0.000E+00  1.000E+00





UNSATURATED ZONE PACKAGE VOLUMETRIC BUDGET FOR  TIME STEP    30 STRESS PERIOD   41
  ------------------------------------------------------------------------------



     CUMULATIVE VOLUMES      L**3       RATES FOR THIS TIME STEP      L**3/T
     ------------------                 ------------------------

           IN:                                      IN:
           ---                                      ---
        INFILTRATION =  1519562973.7855          INFILTRATION =           0.8475

          OUT:                                     OUT:
          ----                                     ----
              UZF ET =  1292891941.3841                UZF ET =           0.8475
        UZF RECHARGE =    54083381.9624          UZF RECHARGE =           0.0093

            IN - OUT =   172587650.4390              IN - OUT =      -9.3454E-03

          STORAGE:                                 STORAGE:
          --------                                 --------
      STORAGE CHANGE =   172742762.9404        STORAGE CHANGE =      -9.3454E-03

 PERCENT DISCREPANCY IS DIFFERENCE BETWEEN IN-OUT MINUS CHANGE IN STORAGE
 DIVIDED BY THE AVERAGE OF IN AND OUT TIMES 100

 PERCENT DISCREPANCY =          -0.00     PERCENT DISCREPANCY =           0.00






1
  VOLUMETRIC BUDGET FOR AGRICULTURAL FIELDS AT  END OF TIME STEP   30, STRESS PERIOD  41
  ------------------------------------------------------------------------------

     CUMULATIVE VOLUMES      L**3       RATES FOR THIS TIME STEP      L**3/T
     ------------------                 ------------------------

           IN:                                      IN:
           ---                                      ---
           AG WELLS      =   463900064.0000             AG WELLS      =           0.0000
      DIVERSION SEGMENTS =   966468928.0000        DIVERSION SEGMENTS =           0.0000
           GW IRRIGATION =           0.0000             GW IRRIGATION =           0.0000
           SW IRRIGATION =           0.0000             SW IRRIGATION =           0.0000
        SYSTEM LOSSES GW =           0.0000          SYSTEM LOSSES GW =           0.0000
        SYSTEM LOSSES SW =           0.0000          SYSTEM LOSSES SW =           0.0000

                TOTAL IN =  1430369024.0000                  TOTAL IN =           0.0000

          OUT:                                     OUT:
          ----                                     ----
           AG WELLS      =           0.0000             AG WELLS      =           0.0000
      DIVERSION SEGMENTS =           0.0000        DIVERSION SEGMENTS =           0.0000
           GW IRRIGATION =   463900064.0000             GW IRRIGATION =           0.0000
           SW IRRIGATION =   966488192.0000             SW IRRIGATION =           0.0000
        SYSTEM LOSSES GW =           0.0000          SYSTEM LOSSES GW =           0.0000
        SYSTEM LOSSES SW =           0.0000          SYSTEM LOSSES SW =           0.0000

               TOTAL OUT =  1430388224.0000                 TOTAL OUT =           0.0000

                IN - OUT =      -19200.0000                  IN - OUT =           0.0000

     PERCENT DISCREPANCY =          -0.00         PERCENT DISCREPANCY =           0.00



1
  VOLUMETRIC BUDGET FOR ENTIRE MODEL AT END OF TIME STEP   30, STRESS PERIOD  41
  ------------------------------------------------------------------------------

     CUMULATIVE VOLUMES      L**3       RATES FOR THIS TIME STEP      L**3/T
     ------------------                 ------------------------

           IN:                                      IN:
           ---                                      ---
             STORAGE     =   782353536.0000               STORAGE     =           1.1223
       CONSTANT HEAD     =           0.0000         CONSTANT HEAD     =           0.0000
     HEAD DEP BOUNDS     =    30111588.0000       HEAD DEP BOUNDS     =           0.2868
      STREAM LEAKAGE     =  1267638400.0000        STREAM LEAKAGE     =          12.8007
        UZF RECHARGE     =    54083364.0000          UZF RECHARGE     =       9.3454E-03
               GW ET     =           0.0000                 GW ET     =           0.0000
     SURFACE LEAKAGE     =           0.0000       SURFACE LEAKAGE     =           0.0000
           AG WELLS      =           0.0000             AG WELLS      =           0.0000

                TOTAL IN =  2134186880.0000                  TOTAL IN =          14.2192

          OUT:                                     OUT:
          ----                                     ----
             STORAGE     =   517115424.0000               STORAGE     =           3.1383
       CONSTANT HEAD     =           0.0000         CONSTANT HEAD     =           0.0000
     HEAD DEP BOUNDS     =    30611014.0000       HEAD DEP BOUNDS     =           0.2955
      STREAM LEAKAGE     =  1119477760.0000        STREAM LEAKAGE     =          10.7364
        UZF RECHARGE     =           0.0000          UZF RECHARGE     =           0.0000
               GW ET     =     3093966.2500                 GW ET     =       4.9465E-02
     SURFACE LEAKAGE     =           0.0000       SURFACE LEAKAGE     =           0.0000
           AG WELLS      =   463900064.0000             AG WELLS      =           0.0000

               TOTAL OUT =  2134198272.0000                 TOTAL OUT =          14.2197

                IN - OUT =      -11392.0000                  IN - OUT =      -5.4932E-04

     PERCENT DISCREPANCY =          -0.00         PERCENT DISCREPANCY =          -0.00






         TIME SUMMARY AT END OF TIME STEP   30 IN STRESS PERIOD   41
                    SECONDS     MINUTES      HOURS       DAYS        YEARS
                    -----------------------------------------------------------
   TIME STEP LENGTH  87667.      1461.1      24.352      1.0147     2.77799E-03
 STRESS PERIOD TIME 2.63000E+06  43833.      730.56      30.440     8.33397E-02
         TOTAL TIME 1.05286E+08 1.75476E+06  29246.      1218.6      3.3363    
1
1
                            STRESS PERIOD NO.   42, LENGTH =   2630000.    
                            -----------------------------------------------

                              NUMBER OF TIME STEPS =    30

                               MULTIPLIER FOR DELT =     1.000

                            INITIAL TIME STEP SIZE =   87666.66    

 REUSING NON-PARAMETER GHB CELLS FROM LAST STRESS PERIOD

      2 GHB CELLS

 REUSING STREAM SEGMENT DATA FROM LAST STRESS PERIOD



            AREAL INFILTRATION RATE
 READING ON UNIT   19 WITH FORMAT: (FREE)              

            1           2           3           4           5           6           7           8           9          10
 ........................................................................................................................
   1   1.0000E-10  2.0000E-10   0.000       0.000       0.000       0.000       0.000       0.000       0.000       0.000    
   2   2.0000E-10  1.0000E-10  2.0000E-10   0.000       0.000      8.0000E-10  8.0000E-10  5.0000E-10   0.000       0.000    
   3    0.000      5.0000E-10  1.0000E-10  1.0000E-10  8.0000E-10  8.0000E-10  5.0000E-10  5.0000E-10   0.000       0.000    
   4   8.0000E-10  5.0000E-10  1.0000E-10  1.0000E-10  1.0000E-10  1.0000E-10  1.0000E-10  1.0000E-10  2.0000E-10   0.000    
   5   8.0000E-10  5.0000E-10  1.0000E-10  1.0000E-10  1.0000E-10  1.0000E-10  1.0000E-10  1.0000E-10  1.0000E-10  1.0000E-10
   6   8.0000E-10  5.0000E-10  5.0000E-10  2.0000E-10  2.0000E-10  1.0000E-10  1.0000E-10  1.0000E-10  1.0000E-10  5.0000E-10
   7   8.0000E-10  5.0000E-10  5.0000E-10  2.0000E-10  2.0000E-10  1.0000E-10  1.0000E-10  2.0000E-10  2.0000E-10   0.000    
   8    0.000      5.0000E-10  5.0000E-10  2.0000E-10  2.0000E-10  1.0000E-10  1.0000E-10  2.0000E-10  5.0000E-10   0.000    
   9    0.000      5.0000E-10  5.0000E-10  2.0000E-10  2.0000E-10  1.0000E-10  1.0000E-10  2.0000E-10  5.0000E-10   0.000    
  10    0.000      5.0000E-10  5.0000E-10  2.0000E-10  2.0000E-10  1.0000E-10  1.0000E-10  2.0000E-10  5.0000E-10  8.0000E-10
  11    0.000      1.0000E-10  1.0000E-10  1.0000E-10  1.0000E-10  1.0000E-10  1.0000E-10  2.0000E-10  5.0000E-10   0.000    
  12   1.0000E-10  1.0000E-10  1.0000E-10  1.0000E-10  1.0000E-10  1.0000E-10  1.0000E-10  1.0000E-10  2.0000E-10   0.000    
  13   1.0000E-10  1.0000E-10  2.0000E-10  2.0000E-10  2.0000E-10  2.0000E-10  2.0000E-10  1.0000E-10  1.0000E-10   0.000    
  14    0.000      2.0000E-10  5.0000E-10  5.0000E-10  5.0000E-10  5.0000E-10  5.0000E-10  2.0000E-10  1.0000E-10   0.000    
  15    0.000       0.000      8.0000E-10  8.0000E-10  8.0000E-10  8.0000E-10   0.000       0.000       0.000       0.000    

                  ET RATE =  5.000000E-08

 USING ET EXTINCTION DEPTH FROM PREVIOUS STRESS PERIOD. CURRENT PERIOD IS:      42

 USING EXTINCTION WATER CONTENT FROM PREVIOUS STRESS PERIOD. CURRENT PERIOD IS:      42

 USING AIR ENTRY PRESSURE FROM PREVIOUS STRESS PERIOD. CURRENT PERIOD IS:      42

 USING ROOT PRESSURE HEAD FROM PREVIOUS STRESS PERIOD. CURRENT PERIOD IS:      42

 USING ROOT ACTIVITY FROM PREVIOUS STRESS PERIOD. CURRENT PERIOD IS:      42

 PROCESSING AG STRESS PERIOD DATA

 READING AG STRESS PERIOD DATA

 READING IRRIGATION SEGMENT

 READING IRRIGATION WELL

 READING SUPPLEMENTAL WELL

 END PROCESSING AG STRESS PERIOD DATA OPTIONS
 
 SOLVING FOR HEAD 
                                                   Max.-Head-Change                         Max.-Flux-Residual
  Residual-Control   Outer-Iter.   Inner-Iter.     Column Row Layer    Maximum-Head-Change  Column Row Layer    Maximum-Flux-Residual          L2-NORM 
          0                 1           2             2   13     1      -0.5787247540E-02       3   13    1        -0.3340948132E+00      0.7390418056E+00
          0                 2           2             4    7     1      -0.1862095183E+01       5    6    1        -0.1000075257E+03      0.2449657144E+03
          0                 3           2             4    7     1       0.1258723265E+00       5    8    1         0.7023064037E+01      0.1708648886E+02
          0                 4           2             4    7     1      -0.5008669032E-02       5    8    1        -0.2872484114E+00      0.6988999562E+00
          0                 5           1             4    7     1       0.6175891242E-04       5    8    1         0.3640315318E-02      0.8865688018E-02

    ------------------------------------------------
       NWT REQUIRED            5 OUTER ITERATIONS 
       AND A TOTAL OF          9 INNER ITERATIONS.
    ------------------------------------------------

 NO OUTPUT CONTROL FOR STRESS PERIOD   42   TIME STEP    1
 
 SOLVING FOR HEAD 
                                                   Max.-Head-Change                         Max.-Flux-Residual
  Residual-Control   Outer-Iter.   Inner-Iter.     Column Row Layer    Maximum-Head-Change  Column Row Layer    Maximum-Flux-Residual          L2-NORM 
          0                 1           2             5    8     1       0.5415537635E-01       5    8    1         0.2983640894E+01      0.6300649617E+01
          0                 2           2             5    8     1      -0.5271937812E-02       5    8    1        -0.2985890266E+00      0.6584496388E+00
          0                 3           2             5    8     1       0.3630271353E-03       5    8    1         0.2112923887E-01      0.4649650952E-01
          0                 4           1             5    8     1      -0.1836327201E-04       5    8    1        -0.1092155880E-02      0.2339446655E-02

    ------------------------------------------------
       NWT REQUIRED            4 OUTER ITERATIONS 
       AND A TOTAL OF          7 INNER ITERATIONS.
    ------------------------------------------------

 NO OUTPUT CONTROL FOR STRESS PERIOD   42   TIME STEP    2
 
 SOLVING FOR HEAD 
                                                   Max.-Head-Change                         Max.-Flux-Residual
  Residual-Control   Outer-Iter.   Inner-Iter.     Column Row Layer    Maximum-Head-Change  Column Row Layer    Maximum-Flux-Residual          L2-NORM 
          0                 1           2             5    8     1       0.5113047431E-01       5    8    1         0.2814273975E+01      0.5990370873E+01
          0                 2           2             5    8     1      -0.4977703017E-02       5    8    1        -0.2816527336E+00      0.5994455061E+00
          0                 3           2             5    8     1       0.3429907798E-03       5    8    1         0.1994369405E-01      0.4239039034E-01
          0                 4           1             5    8     1      -0.1756600647E-04       5    8    1        -0.1043667046E-02      0.2193758204E-02

    ------------------------------------------------
       NWT REQUIRED            4 OUTER ITERATIONS 
       AND A TOTAL OF          7 INNER ITERATIONS.
    ------------------------------------------------

 NO OUTPUT CONTROL FOR STRESS PERIOD   42   TIME STEP    3
 
 SOLVING FOR HEAD 
                                                   Max.-Head-Change                         Max.-Flux-Residual
  Residual-Control   Outer-Iter.   Inner-Iter.     Column Row Layer    Maximum-Head-Change  Column Row Layer    Maximum-Flux-Residual          L2-NORM 
          0                 1           2             5    8     1       0.4832119708E-01       5    8    1         0.2657088798E+01      0.5704748573E+01
          0                 2           2             5    8     1      -0.4704441777E-02       5    8    1        -0.2659345542E+00      0.5708916676E+00
          0                 3           2             5    8     1       0.3243826551E-03       5    8    1         0.1884341783E-01      0.4039786629E-01
          0                 4           1             5    8     1      -0.1682557160E-04       5    8    1        -0.9986657017E-03      0.2118270720E-02

    ------------------------------------------------
       NWT REQUIRED            4 OUTER ITERATIONS 
       AND A TOTAL OF          7 INNER ITERATIONS.
    ------------------------------------------------

 NO OUTPUT CONTROL FOR STRESS PERIOD   42   TIME STEP    4
 
 SOLVING FOR HEAD 
                                                   Max.-Head-Change                         Max.-Flux-Residual
  Residual-Control   Outer-Iter.   Inner-Iter.     Column Row Layer    Maximum-Head-Change  Column Row Layer    Maximum-Flux-Residual          L2-NORM 
          0                 1           2             5    8     1       0.4571005837E-01       5    8    1         0.2511091437E+01      0.5438962179E+01
          0                 2           2             5    8     1      -0.4446312740E-02       5    8    1        -0.2511070998E+00      0.5438815769E+00
          0                 3           2             5    8     1       0.3027777025E-03       5    8    1         0.1757752392E-01      0.3807122633E-01
          0                 4           1             5    8     1      -0.1204780681E-04       5    8    1        -0.7189216421E-03      0.1557086835E-02

    ------------------------------------------------
       NWT REQUIRED            4 OUTER ITERATIONS 
       AND A TOTAL OF          7 INNER ITERATIONS.
    ------------------------------------------------

 NO OUTPUT CONTROL FOR STRESS PERIOD   42   TIME STEP    5
 
 SOLVING FOR HEAD 
                                                   Max.-Head-Change                         Max.-Flux-Residual
  Residual-Control   Outer-Iter.   Inner-Iter.     Column Row Layer    Maximum-Head-Change  Column Row Layer    Maximum-Flux-Residual          L2-NORM 
          0                 1           2             5    8     1       0.4328154677E-01       5    8    1         0.2375399344E+01      0.5191352137E+01
          0                 2           2             5    8     1      -0.4285771686E-02       5    8    1        -0.2417057554E+00      0.5272967736E+00
          0                 3           2             5    8     1       0.2449067917E-03       5    8    1         0.1426243456E-01      0.3196793085E-01
          0                 4           1             5    8     1      -0.7362510274E-04       5    8    1        -0.4300094140E-02      0.1036869589E-01

    ------------------------------------------------
       NWT REQUIRED            4 OUTER ITERATIONS 
       AND A TOTAL OF          7 INNER ITERATIONS.
    ------------------------------------------------

 NO OUTPUT CONTROL FOR STRESS PERIOD   42   TIME STEP    6
 
 SOLVING FOR HEAD 
                                                   Max.-Head-Change                         Max.-Flux-Residual
  Residual-Control   Outer-Iter.   Inner-Iter.     Column Row Layer    Maximum-Head-Change  Column Row Layer    Maximum-Flux-Residual          L2-NORM 
          0                 1           2             5    8     1       0.4102706271E-01       5    8    1         0.2249514832E+01      0.4961160168E+01
          0                 2           2             5    6     1      -0.2621590503E-01       5    8    1        -0.1448415932E+01      0.3421718938E+01
          0                 3           2             4    7     1       0.2382468727E-01       5    8    1         0.1324854966E+01      0.3234915120E+01
          0                 4           2             4    7     1      -0.9504100967E-03       5    8    1        -0.5431066177E-01      0.1326321242E+00
          0                 5           1             4    7     1       0.1405585112E-04       5    6    1         0.8237116456E-03      0.2015683024E-02

    ------------------------------------------------
       NWT REQUIRED            5 OUTER ITERATIONS 
       AND A TOTAL OF          9 INNER ITERATIONS.
    ------------------------------------------------

 NO OUTPUT CONTROL FOR STRESS PERIOD   42   TIME STEP    7
 
 SOLVING FOR HEAD 
                                                   Max.-Head-Change                         Max.-Flux-Residual
  Residual-Control   Outer-Iter.   Inner-Iter.     Column Row Layer    Maximum-Head-Change  Column Row Layer    Maximum-Flux-Residual          L2-NORM 
          0                 1           2             5    8     1       0.3892149118E-01       5    8    1         0.2132034388E+01      0.4745316347E+01
          0                 2           2             5    8     1      -0.3788452680E-02       5    8    1        -0.2133382262E+00      0.4747963081E+00
          0                 3           2             4    7     1      -0.2303803414E-01       4    7    1        -0.1236753563E+01      0.3029287167E+01
          0                 4           2             4    7     1       0.2408475699E-01       4    7    1         0.1328895571E+01      0.3254185769E+01
          0                 5           2             4    7     1      -0.9626046339E-03       4    7    1        -0.5459432849E-01      0.1337180661E+00
          0                 6           1             4    7     1       0.1578980815E-04       5    8    1         0.9204825462E-03      0.2254874768E-02

    ------------------------------------------------
       NWT REQUIRED            6 OUTER ITERATIONS 
       AND A TOTAL OF         11 INNER ITERATIONS.
    ------------------------------------------------

 NO OUTPUT CONTROL FOR STRESS PERIOD   42   TIME STEP    8
 
 SOLVING FOR HEAD 
                                                   Max.-Head-Change                         Max.-Flux-Residual
  Residual-Control   Outer-Iter.   Inner-Iter.     Column Row Layer    Maximum-Head-Change  Column Row Layer    Maximum-Flux-Residual          L2-NORM 
          0                 1           2             5    8     1       0.3695909592E-01       5    8    1         0.2022618003E+01      0.4543875985E+01
          0                 2           2             5    8     1      -0.3599234575E-02       5    8    1        -0.2024885501E+00      0.4548440724E+00
          0                 3           2             4    7     1      -0.2303171662E-01       4    7    1        -0.1236395119E+01      0.3029672975E+01
          0                 4           2             4    7     1       0.2408270302E-01       4    7    1         0.1328779506E+01      0.3254013524E+01
          0                 5           2             4    7     1      -0.9625228877E-03       4    7    1        -0.5458957930E-01      0.1337114829E+00
          0                 6           1             4    7     1       0.1578880370E-04       5    8    1         0.9204556172E-03      0.2254785409E-02

    ------------------------------------------------
       NWT REQUIRED            6 OUTER ITERATIONS 
       AND A TOTAL OF         11 INNER ITERATIONS.
    ------------------------------------------------

 NO OUTPUT CONTROL FOR STRESS PERIOD   42   TIME STEP    9
 
 SOLVING FOR HEAD 
                                                   Max.-Head-Change                         Max.-Flux-Residual
  Residual-Control   Outer-Iter.   Inner-Iter.     Column Row Layer    Maximum-Head-Change  Column Row Layer    Maximum-Flux-Residual          L2-NORM 
          0                 1           2             5    6     1       0.3522444707E-01       5    8    1         0.1920633084E+01      0.4355644551E+01
          0                 2           2             5    6     1      -0.3430509839E-02       5    8    1        -0.1922901913E+00      0.4360273876E+00
          0                 3           2             4    7     1      -0.2302994126E-01       4    7    1        -0.1236281665E+01      0.3030575214E+01
          0                 4           2             4    7     1       0.2408327659E-01       4    7    1         0.1328808623E+01      0.3254167233E+01
          0                 5           2             4    7     1      -0.9625457191E-03       4    7    1        -0.5459076972E-01      0.1337177453E+00
          0                 6           1             4    7     1       0.1578908957E-04       5    8    1         0.9205015406E-03      0.2254862974E-02

    ------------------------------------------------
       NWT REQUIRED            6 OUTER ITERATIONS 
       AND A TOTAL OF         11 INNER ITERATIONS.
    ------------------------------------------------

 NO OUTPUT CONTROL FOR STRESS PERIOD   42   TIME STEP   10
 
 SOLVING FOR HEAD 
                                                   Max.-Head-Change                         Max.-Flux-Residual
  Residual-Control   Outer-Iter.   Inner-Iter.     Column Row Layer    Maximum-Head-Change  Column Row Layer    Maximum-Flux-Residual          L2-NORM 
          0                 1           2             5    6     1       0.3361086513E-01       5    6    1         0.1830706873E+01      0.4179614720E+01
          0                 2           2             5    6     1      -0.3273547714E-02       5    6    1        -0.1832977321E+00      0.4174430871E+00
          0                 3           2             4    7     1      -0.2302846477E-01       4    7    1        -0.1236184843E+01      0.3031484621E+01
          0                 4           2             4    7     1       0.2408386051E-01       4    7    1         0.1328837952E+01      0.3254317911E+01
          0                 5           2             4    7     1      -0.9625690606E-03       4    7    1        -0.5459196874E-01      0.1337238842E+00
          0                 6           1             4    7     1       0.1578938238E-04       5    8    1         0.9205312817E-03      0.2254929086E-02

    ------------------------------------------------
       NWT REQUIRED            6 OUTER ITERATIONS 
       AND A TOTAL OF         11 INNER ITERATIONS.
    ------------------------------------------------

 NO OUTPUT CONTROL FOR STRESS PERIOD   42   TIME STEP   11
 
 SOLVING FOR HEAD 
                                                   Max.-Head-Change                         Max.-Flux-Residual
  Residual-Control   Outer-Iter.   Inner-Iter.     Column Row Layer    Maximum-Head-Change  Column Row Layer    Maximum-Flux-Residual          L2-NORM 
          0                 1           2             5    6     1       0.3209660176E-01       5    6    1         0.1746829631E+01      0.4015599920E+01
          0                 2           2             5    6     1      -0.3126258373E-02       5    6    1        -0.1749100916E+00      0.4020361057E+00
          0                 3           2             4    7     1      -0.2302724739E-01       4    7    1        -0.1236103677E+01      0.3032260236E+01
          0                 4           2             4    7     1       0.2408443497E-01       4    7    1         0.1328867541E+01      0.3254469433E+01
          0                 5           2             4    7     1      -0.9625920767E-03       4    7    1        -0.5459317847E-01      0.1337304912E+00
          0                 6           1             4    7     1       0.1578966914E-04       5    8    1         0.9205685474E-03      0.2255007681E-02

    ------------------------------------------------
       NWT REQUIRED            6 OUTER ITERATIONS 
       AND A TOTAL OF         11 INNER ITERATIONS.
    ------------------------------------------------

 NO OUTPUT CONTROL FOR STRESS PERIOD   42   TIME STEP   12
 
 SOLVING FOR HEAD 
                                                   Max.-Head-Change                         Max.-Flux-Residual
  Residual-Control   Outer-Iter.   Inner-Iter.     Column Row Layer    Maximum-Head-Change  Column Row Layer    Maximum-Flux-Residual          L2-NORM 
          0                 1           2             5    6     1       0.3067500619E-01       5    6    1         0.1668134349E+01      0.3862392322E+01
          0                 2           2             5    6     1      -0.2987977002E-02       5    6    1        -0.1670406395E+00      0.3867183194E+00
          0                 3           2             4    7     1      -0.2302628400E-01       4    7    1        -0.1236037137E+01      0.3033045750E+01
          0                 4           2             4    7     1       0.2408501178E-01       4    7    1         0.1328897440E+01      0.3254608877E+01
          0                 5           2             4    7     1      -0.9626150361E-03       5    8    1        -0.5459505378E-01      0.1337361806E+00
          0                 6           1             4    7     1       0.1578995523E-04       5    8    1         0.9206079305E-03      0.2255075781E-02

    ------------------------------------------------
       NWT REQUIRED            6 OUTER ITERATIONS 
       AND A TOTAL OF         11 INNER ITERATIONS.
    ------------------------------------------------

 NO OUTPUT CONTROL FOR STRESS PERIOD   42   TIME STEP   13
 
 SOLVING FOR HEAD 
                                                   Max.-Head-Change                         Max.-Flux-Residual
  Residual-Control   Outer-Iter.   Inner-Iter.     Column Row Layer    Maximum-Head-Change  Column Row Layer    Maximum-Flux-Residual          L2-NORM 
          0                 1           2             5    6     1       0.2933940233E-01       5    6    1         0.1594244118E+01      0.3718590752E+01
          0                 2           2             5    6     1      -0.2858060178E-02       5    6    1        -0.1596516856E+00      0.3723403502E+00
          0                 3           2             4    7     1      -0.2302555392E-01       4    7    1        -0.1235984116E+01      0.3033798947E+01
          0                 4           2             4    7     1       0.2408558762E-01       4    7    1         0.1328927450E+01      0.3254744014E+01
          0                 5           2             4    7     1      -0.9626379571E-03       5    8    1        -0.5459802926E-01      0.1337417011E+00
          0                 6           1             4    7     1       0.1579024064E-04       5    8    1         0.9206455595E-03      0.2255145970E-02

    ------------------------------------------------
       NWT REQUIRED            6 OUTER ITERATIONS 
       AND A TOTAL OF         11 INNER ITERATIONS.
    ------------------------------------------------

 NO OUTPUT CONTROL FOR STRESS PERIOD   42   TIME STEP   14
 
 SOLVING FOR HEAD 
                                                   Max.-Head-Change                         Max.-Flux-Residual
  Residual-Control   Outer-Iter.   Inner-Iter.     Column Row Layer    Maximum-Head-Change  Column Row Layer    Maximum-Flux-Residual          L2-NORM 
          0                 1           2             5    6     1       0.2808421678E-01       5    6    1         0.1524845505E+01      0.3583493164E+01
          0                 2           2             5    6     1      -0.2735965771E-02       5    6    1        -0.1527118873E+00      0.3588322098E+00
          0                 3           2             4    7     1      -0.2302504369E-01       4    7    1        -0.1235943841E+01      0.3034521601E+01
          0                 4           2             4    7     1       0.2408616386E-01       4    7    1         0.1328957638E+01      0.3254875273E+01
          0                 5           2             4    7     1      -0.9610423650E-03       5    8    1        -0.5450908801E-01      0.1335221252E+00
          0                 6           1             4    7     1       0.1419578710E-04       5    8    1         0.8277252061E-03      0.2027552398E-02

    ------------------------------------------------
       NWT REQUIRED            6 OUTER ITERATIONS 
       AND A TOTAL OF         11 INNER ITERATIONS.
    ------------------------------------------------

 NO OUTPUT CONTROL FOR STRESS PERIOD   42   TIME STEP   15
 
 SOLVING FOR HEAD 
                                                   Max.-Head-Change                         Max.-Flux-Residual
  Residual-Control   Outer-Iter.   Inner-Iter.     Column Row Layer    Maximum-Head-Change  Column Row Layer    Maximum-Flux-Residual          L2-NORM 
          0                 1           2             5    6     1       0.2690343107E-01       5    6    1         0.1459599945E+01      0.3456460310E+01
          0                 2           2             5    6     1      -0.2619438521E-02       5    6    1        -0.1460955804E+00      0.3459304337E+00
          0                 3           2             4    7     1      -0.2302891568E-01       4    7    1        -0.1236139676E+01      0.3035765422E+01
          0                 4           2             4    7     1       0.2408930996E-01       4    7    1         0.1329129764E+01      0.3255350191E+01
          0                 5           2             4    7     1      -0.9627861113E-03       5    8    1        -0.5460941452E-01      0.1337664833E+00
          0                 6           1             4    7     1       0.1579207300E-04       5    8    1         0.9207897833E-03      0.2255460434E-02

    ------------------------------------------------
       NWT REQUIRED            6 OUTER ITERATIONS 
       AND A TOTAL OF         11 INNER ITERATIONS.
    ------------------------------------------------

 NO OUTPUT CONTROL FOR STRESS PERIOD   42   TIME STEP   16
 
 SOLVING FOR HEAD 
                                                   Max.-Head-Change                         Max.-Flux-Residual
  Residual-Control   Outer-Iter.   Inner-Iter.     Column Row Layer    Maximum-Head-Change  Column Row Layer    Maximum-Flux-Residual          L2-NORM 
          0                 1           2             5    6     1       0.2579210018E-01       5    6    1         0.1398228546E+01      0.3336900962E+01
          0                 2           2             5    6     1      -0.2513006925E-02       5    6    1        -0.1400503007E+00      0.3341745298E+00
          0                 3           2             4    7     1      -0.2302463060E-01       4    7    1        -0.1235898537E+01      0.3035883671E+01
          0                 4           2             4    7     1       0.2408732950E-01       4    7    1         0.1329019169E+01      0.3255128766E+01
          0                 5           2             4    7     1      -0.9627072881E-03       5    8    1        -0.5460626523E-01      0.1337574184E+00
          0                 6           1             4    7     1       0.1579110171E-04       5    8    1         0.9207497435E-03      0.2255347462E-02

    ------------------------------------------------
       NWT REQUIRED            6 OUTER ITERATIONS 
       AND A TOTAL OF         11 INNER ITERATIONS.
    ------------------------------------------------

 NO OUTPUT CONTROL FOR STRESS PERIOD   42   TIME STEP   17
 
 SOLVING FOR HEAD 
                                                   Max.-Head-Change                         Max.-Flux-Residual
  Residual-Control   Outer-Iter.   Inner-Iter.     Column Row Layer    Maximum-Head-Change  Column Row Layer    Maximum-Flux-Residual          L2-NORM 
          0                 1           2             5    6     1       0.2474564887E-01       5    6    1         0.1340474790E+01      0.3224272402E+01
          0                 2           2             5    6     1      -0.2411216440E-02       5    6    1        -0.1342749725E+00      0.3229116947E+00
          0                 3           2             4    7     1      -0.2302468021E-01       4    7    1        -0.1235890862E+01      0.3036523455E+01
          0                 4           2             4    7     1       0.2408789857E-01       4    7    1         0.1329049375E+01      0.3255248687E+01
          0                 5           2             4    7     1      -0.9627299388E-03       5    8    1        -0.5460877170E-01      0.1337623142E+00
          0                 6           1             4    7     1       0.1579138265E-04       5    8    1         0.9207814410E-03      0.2255407120E-02

    ------------------------------------------------
       NWT REQUIRED            6 OUTER ITERATIONS 
       AND A TOTAL OF         11 INNER ITERATIONS.
    ------------------------------------------------

 NO OUTPUT CONTROL FOR STRESS PERIOD   42   TIME STEP   18
 
 SOLVING FOR HEAD 
                                                   Max.-Head-Change                         Max.-Flux-Residual
  Residual-Control   Outer-Iter.   Inner-Iter.     Column Row Layer    Maximum-Head-Change  Column Row Layer    Maximum-Flux-Residual          L2-NORM 
          0                 1           2             5    6     1       0.2375987243E-01       5    6    1         0.1286101499E+01      0.3118097542E+01
          0                 2           2             5    6     1      -0.2313658070E-02       5    6    1        -0.1287458784E+00      0.3120746257E+00
          0                 3           2             4    7     1      -0.2302902243E-01       4    7    1        -0.1236114354E+01      0.3037682135E+01
          0                 4           2             4    7     1       0.2409098779E-01       4    7    1         0.1329218749E+01      0.3255706434E+01
          0                 5           2             4    7     1      -0.9628542937E-03       5    8    1        -0.5461695411E-01      0.1337812392E+00
          0                 6           1             4    7     1       0.1579291816E-04       5    8    1         0.9208851620E-03      0.2255641510E-02

    ------------------------------------------------
       NWT REQUIRED            6 OUTER ITERATIONS 
       AND A TOTAL OF         11 INNER ITERATIONS.
    ------------------------------------------------

 NO OUTPUT CONTROL FOR STRESS PERIOD   42   TIME STEP   19
 
 SOLVING FOR HEAD 
                                                   Max.-Head-Change                         Max.-Flux-Residual
  Residual-Control   Outer-Iter.   Inner-Iter.     Column Row Layer    Maximum-Head-Change  Column Row Layer    Maximum-Flux-Residual          L2-NORM 
          0                 1           2             5    6     1       0.2283028098E-01       5    6    1         0.1234857623E+01      0.3017902016E+01
          0                 2           2             5    6     1      -0.2224904580E-02       5    6    1        -0.1237133384E+00      0.3022737416E+00
          0                 3           2             4    7     1      -0.2302524266E-01       4    7    1        -0.1235902620E+01      0.3037728664E+01
          0                 4           2             4    7     1       0.2408902364E-01       4    7    1         0.1329109418E+01      0.3255479527E+01
          0                 5           2             4    7     1      -0.9627747183E-03       5    8    1        -0.5461347975E-01      0.1337717827E+00
          0                 6           1             4    7     1       0.1579193735E-04       5    8    1         0.9208410013E-03      0.2255524096E-02

    ------------------------------------------------
       NWT REQUIRED            6 OUTER ITERATIONS 
       AND A TOTAL OF         11 INNER ITERATIONS.
    ------------------------------------------------

 NO OUTPUT CONTROL FOR STRESS PERIOD   42   TIME STEP   20
 
 SOLVING FOR HEAD 
                                                   Max.-Head-Change                         Max.-Flux-Residual
  Residual-Control   Outer-Iter.   Inner-Iter.     Column Row Layer    Maximum-Head-Change  Column Row Layer    Maximum-Flux-Residual          L2-NORM 
          0                 1           2             5    6     1       0.2195332364E-01       5    6    1         0.1186543408E+01      0.2923262592E+01
          0                 2           2             5    6     1      -0.2139601068E-02       5    6    1        -0.1188819527E+00      0.2930186926E+00
          0                 3           2             4    7     1      -0.2302573849E-01       4    7    1        -0.1235921054E+01      0.3038283530E+01
          0                 4           2             4    7     1       0.2408958726E-01       4    7    1         0.1329139664E+01      0.3255586571E+01
          0                 5           2             4    7     1      -0.9627971512E-03       5    8    1        -0.5461571165E-01      0.1337761599E+00
          0                 6           1             4    7     1       0.1579221526E-04       5    8    1         0.9208692522E-03      0.2255581009E-02

    ------------------------------------------------
       NWT REQUIRED            6 OUTER ITERATIONS 
       AND A TOTAL OF         11 INNER ITERATIONS.
    ------------------------------------------------

 NO OUTPUT CONTROL FOR STRESS PERIOD   42   TIME STEP   21
 
 SOLVING FOR HEAD 
                                                   Max.-Head-Change                         Max.-Flux-Residual
  Residual-Control   Outer-Iter.   Inner-Iter.     Column Row Layer    Maximum-Head-Change  Column Row Layer    Maximum-Flux-Residual          L2-NORM 
          0                 1           2             5    6     1       0.2112542474E-01       5    6    1         0.1140958221E+01      0.2833753184E+01
          0                 2           2             5    6     1      -0.2059069559E-02       5    6    1        -0.1143234668E+00      0.2840082486E+00
          0                 3           2             4    7     1      -0.2302635681E-01       4    7    1        -0.1235946703E+01      0.3038835904E+01
          0                 4           2             4    7     1       0.2409014526E-01       4    7    1         0.1329169699E+01      0.3255691202E+01
          0                 5           2             4    7     1      -0.9628193604E-03       5    8    1        -0.5461785583E-01      0.1337804522E+00
          0                 6           1             4    7     1       0.1579248992E-04       5    8    1         0.9208963938E-03      0.2255639202E-02

    ------------------------------------------------
       NWT REQUIRED            6 OUTER ITERATIONS 
       AND A TOTAL OF         11 INNER ITERATIONS.
    ------------------------------------------------

 NO OUTPUT CONTROL FOR STRESS PERIOD   42   TIME STEP   22
 
 SOLVING FOR HEAD 
                                                   Max.-Head-Change                         Max.-Flux-Residual
  Residual-Control   Outer-Iter.   Inner-Iter.     Column Row Layer    Maximum-Head-Change  Column Row Layer    Maximum-Flux-Residual          L2-NORM 
          0                 1           2             5    6     1       0.2034355903E-01       5    6    1         0.1097933192E+01      0.2749065345E+01
          0                 2           2             5    6     1      -0.1983015783E-02       5    6    1        -0.1100209938E+00      0.2754839786E+00
          0                 3           2             4    7     1      -0.2302709096E-01       4    7    1        -0.1235979168E+01      0.3039367845E+01
          0                 4           2             4    7     1       0.2409070160E-01       4    7    1         0.1329199735E+01      0.3255793906E+01
          0                 5           2             4    7     1      -0.9628415030E-03       5    8    1        -0.5461992622E-01      0.1337846556E+00
          0                 6           1             4    7     1       0.1579276358E-04       5    8    1         0.9209225932E-03      0.2255686393E-02

    ------------------------------------------------
       NWT REQUIRED            6 OUTER ITERATIONS 
       AND A TOTAL OF         11 INNER ITERATIONS.
    ------------------------------------------------

 NO OUTPUT CONTROL FOR STRESS PERIOD   42   TIME STEP   23
 
 SOLVING FOR HEAD 
                                                   Max.-Head-Change                         Max.-Flux-Residual
  Residual-Control   Outer-Iter.   Inner-Iter.     Column Row Layer    Maximum-Head-Change  Column Row Layer    Maximum-Flux-Residual          L2-NORM 
          0                 1           2             5    6     1       0.1960494913E-01       5    6    1         0.1057311466E+01      0.2668870467E+01
          0                 2           2             5    6     1      -0.1911169578E-02       5    6    1        -0.1059588483E+00      0.2674130515E+00
          0                 3           2             4    7     1      -0.2302792605E-01       4    7    1        -0.1236017617E+01      0.3039879455E+01
          0                 4           2             4    7     1       0.2409125100E-01       4    7    1         0.1329229475E+01      0.3255893994E+01
          0                 5           2             4    7     1      -0.9628633692E-03       5    8    1        -0.5462191640E-01      0.1337887443E+00
          0                 6           1             4    7     1       0.1579303365E-04       5    8    1         0.9209477769E-03      0.2255741845E-02

    ------------------------------------------------
       NWT REQUIRED            6 OUTER ITERATIONS 
       AND A TOTAL OF         11 INNER ITERATIONS.
    ------------------------------------------------

 NO OUTPUT CONTROL FOR STRESS PERIOD   42   TIME STEP   24
 
 SOLVING FOR HEAD 
                                                   Max.-Head-Change                         Max.-Flux-Residual
  Residual-Control   Outer-Iter.   Inner-Iter.     Column Row Layer    Maximum-Head-Change  Column Row Layer    Maximum-Flux-Residual          L2-NORM 
          0                 1           2             5    7     1       0.1897908568E-01       5    6    1         0.1018915990E+01      0.2592857230E+01
          0                 2           2             5    7     1      -0.1850350001E-02       5    6    1        -0.1021193258E+00      0.2597628287E+00
          0                 3           2             4    7     1      -0.2302885985E-01       4    7    1        -0.1236061897E+01      0.3040395901E+01
          0                 4           2             4    7     1       0.2409179985E-01       4    7    1         0.1329259266E+01      0.3256005604E+01
          0                 5           2             4    7     1      -0.9628852140E-03       5    8    1        -0.5462384497E-01      0.1337932692E+00
          0                 6           1             4    7     1       0.1579330361E-04       5    8    1         0.9209721939E-03      0.2255797878E-02

    ------------------------------------------------
       NWT REQUIRED            6 OUTER ITERATIONS 
       AND A TOTAL OF         11 INNER ITERATIONS.
    ------------------------------------------------

 NO OUTPUT CONTROL FOR STRESS PERIOD   42   TIME STEP   25
 
 SOLVING FOR HEAD 
                                                   Max.-Head-Change                         Max.-Flux-Residual
  Residual-Control   Outer-Iter.   Inner-Iter.     Column Row Layer    Maximum-Head-Change  Column Row Layer    Maximum-Flux-Residual          L2-NORM 
          0                 1           2             5    7     1       0.1857848026E-01       5    7    1         0.9863858142E+00      0.2520743477E+01
          0                 2           2             5    7     1      -0.1811382516E-02       5    7    1        -0.9886647047E-01      0.2525482924E+00
          0                 3           2             4    7     1      -0.2302987738E-01       4    7    1        -0.1236111172E+01      0.3040846576E+01
          0                 4           2             4    7     1       0.2409234070E-01       4    7    1         0.1329288691E+01      0.3256102106E+01
          0                 5           2             4    7     1      -0.9612882083E-03       5    8    1        -0.5453390848E-01      0.1335722587E+00
          0                 6           1             4    7     1       0.1419882665E-04       5    8    1         0.8280392690E-03      0.2028184553E-02

    ------------------------------------------------
       NWT REQUIRED            6 OUTER ITERATIONS 
       AND A TOTAL OF         11 INNER ITERATIONS.
    ------------------------------------------------

 NO OUTPUT CONTROL FOR STRESS PERIOD   42   TIME STEP   26
 
 SOLVING FOR HEAD 
                                                   Max.-Head-Change                         Max.-Flux-Residual
  Residual-Control   Outer-Iter.   Inner-Iter.     Column Row Layer    Maximum-Head-Change  Column Row Layer    Maximum-Flux-Residual          L2-NORM 
          0                 1           2             5    7     1       0.1818756438E-01       5    7    1         0.9655652663E+00      0.2452279393E+01
          0                 2           2             5    7     1      -0.1773357498E-02       5    7    1        -0.9678444657E-01      0.2456994075E+00
          0                 3           2             4    7     1      -0.2303099924E-01       4    7    1        -0.1236166513E+01      0.3041306286E+01
          0                 4           2             4    7     1       0.2409290527E-01       5    8    1         0.1329323927E+01      0.3256200135E+01
          0                 5           2             4    7     1      -0.9589088053E-03       5    8    1        -0.5439954851E-01      0.1332424501E+00
          0                 6           1             4    7     1       0.1182980686E-04       5    8    1         0.6899581492E-03      0.1690011870E-02

    ------------------------------------------------
       NWT REQUIRED            6 OUTER ITERATIONS 
       AND A TOTAL OF         11 INNER ITERATIONS.
    ------------------------------------------------

 NO OUTPUT CONTROL FOR STRESS PERIOD   42   TIME STEP   27
 
 SOLVING FOR HEAD 
                                                   Max.-Head-Change                         Max.-Flux-Residual
  Residual-Control   Outer-Iter.   Inner-Iter.     Column Row Layer    Maximum-Head-Change  Column Row Layer    Maximum-Flux-Residual          L2-NORM 
          0                 1           2             5    7     1       0.1780614658E-01       5    7    1         0.9452388588E+00      0.2387215585E+01
          0                 2           2             5    7     1      -0.1736256328E-02       5    7    1        -0.9475183280E-01      0.2391906857E+00
          0                 3           2             4    7     1      -0.2303222589E-01       5    8    1        -0.1236276381E+01      0.3041754542E+01
          0                 4           2             4    7     1       0.2409350012E-01       5    8    1         0.1329369867E+01      0.3256300582E+01
          0                 5           2             4    7     1      -0.9629528850E-03       5    8    1        -0.5462943259E-01      0.1338053222E+00
          0                 6           1             4    7     1       0.1579413835E-04       5    8    1         0.9210429430E-03      0.2255951401E-02

    ------------------------------------------------
       NWT REQUIRED            6 OUTER ITERATIONS 
       AND A TOTAL OF         11 INNER ITERATIONS.
    ------------------------------------------------

 NO OUTPUT CONTROL FOR STRESS PERIOD   42   TIME STEP   28
 
 SOLVING FOR HEAD 
                                                   Max.-Head-Change                         Max.-Flux-Residual
  Residual-Control   Outer-Iter.   Inner-Iter.     Column Row Layer    Maximum-Head-Change  Column Row Layer    Maximum-Flux-Residual          L2-NORM 
          0                 1           2             5    7     1       0.1743460159E-01       5    7    1         0.9254297416E+00      0.2325348143E+01
          0                 2           2             5    7     1      -0.1700115466E-02       5    7    1        -0.9277094468E-01      0.2330014984E+00
          0                 3           2             4    7     1      -0.2303345329E-01       5    8    1        -0.1236514332E+01      0.3042179156E+01
          0                 4           2             4    7     1       0.2409402532E-01       5    8    1         0.1329410873E+01      0.3256390050E+01
          0                 5           2             4    7     1      -0.9629737873E-03       5    8    1        -0.5463110738E-01      0.1338089787E+00
          0                 6           1             4    7     1       0.1579439610E-04       5    8    1         0.9210641231E-03      0.2255996684E-02

    ------------------------------------------------
       NWT REQUIRED            6 OUTER ITERATIONS 
       AND A TOTAL OF         11 INNER ITERATIONS.
    ------------------------------------------------

 NO OUTPUT CONTROL FOR STRESS PERIOD   42   TIME STEP   29
 
 SOLVING FOR HEAD 
                                                   Max.-Head-Change                         Max.-Flux-Residual
  Residual-Control   Outer-Iter.   Inner-Iter.     Column Row Layer    Maximum-Head-Change  Column Row Layer    Maximum-Flux-Residual          L2-NORM 
          0                 1           2             5    7     1       0.1707235358E-01       5    7    1         0.9061077283E+00      0.2266437184E+01
          0                 2           2             5    7     1      -0.1664878904E-02       5    7    1        -0.9083876394E-01      0.2271075756E+00
          0                 3           2             4    7     1      -0.2303473755E-01       5    8    1        -0.1236740264E+01      0.3042589679E+01
          0                 4           2             4    7     1       0.2409454522E-01       5    8    1         0.1329450567E+01      0.3256477370E+01
          0                 5           2             4    7     1      -0.9613759481E-03       5    8    1        -0.5454093750E-01      0.1335875985E+00
          0                 6           1             4    7     1       0.1419990906E-04       5    8    1         0.8281282696E-03      0.2028375611E-02

    ------------------------------------------------
       NWT REQUIRED            6 OUTER ITERATIONS 
       AND A TOTAL OF         11 INNER ITERATIONS.
    ------------------------------------------------

 NO OUTPUT CONTROL FOR STRESS PERIOD   42   TIME STEP   30



 STREAM LISTING     PERIOD     42   STEP       30

 LAYER ROW COL. STREAM  RCH.  FLOW INTO     FLOW TO   FLOW OUT OF   OVRLND.     DIRECT     STREAM       STREAM     STREAM     STREAM   STREAMBED  STREAMBED
                SEG.NO.  NO.  STRM. RCH.    AQUIFER    STRM. RCH.    RUNOFF     PRECIP       ET          HEAD       DEPTH      WIDTH   CONDCTNC.   GRADIENT

   1    1    1     1     1    4.7249E+01  3.2762E-01   4.6921E+01  0.000E+00  0.000E+00  0.000E+00  1.09443E+03  1.381E+00  1.662E+01  7.477E-02  1.460E+00
   1    2    2     1     2    4.6921E+01  5.0759E-01   4.6413E+01  0.000E+00  0.000E+00  0.000E+00  1.08944E+03  1.379E+00  1.656E+01  1.159E-01  1.460E+00
   1    3    3     1     3    4.6413E+01  4.3309E-01   4.5980E+01  0.000E+00  0.000E+00  0.000E+00  1.08379E+03  1.376E+00  1.650E+01  9.898E-02  1.459E+00
   1    3    4     1     4    4.5980E+01  3.9899E-01   4.5581E+01  0.000E+00  0.000E+00  0.000E+00  1.07878E+03  1.373E+00  1.644E+01  9.124E-02  1.458E+00
   1    4    5     2     1    4.3581E+01  3.6514E-01   4.3216E+01  0.000E+00  0.000E+00  0.000E+00  1.07362E+03  1.681E+00  1.200E+01  7.800E-02  1.560E+00
   1    5    6     2     2    4.3216E+01  2.8042E-01   4.2936E+01  0.000E+00  0.000E+00  0.000E+00  1.06818E+03  1.674E+00  1.200E+01  6.000E-02  1.558E+00
   1    6    6     2     3    4.2936E+01  2.8003E-01   4.2656E+01  0.000E+00  0.000E+00  0.000E+00  1.06346E+03  1.667E+00  1.200E+01  6.000E-02  1.556E+00
   1    7    6     2     4    4.2656E+01  2.7964E-01   4.2376E+01  0.000E+00  0.000E+00  0.000E+00  1.05874E+03  1.661E+00  1.200E+01  6.000E-02  1.554E+00
   1    8    6     2     5    4.2376E+01  2.7924E-01   4.2097E+01  0.000E+00  0.000E+00  0.000E+00  1.05401E+03  1.654E+00  1.200E+01  6.000E-02  1.551E+00
   1    3    5     3     1    2.0000E+00  2.8252E-01   1.7175E+00  0.000E+00  0.000E+00  0.000E+00  1.07555E+03  1.909E+00  9.636E+00  7.227E-02  1.955E+00
   1    3    6     3     2    1.7175E+00  2.4905E-01   1.4684E+00  0.000E+00  0.000E+00  0.000E+00  1.07264E+03  1.727E+00  8.909E+00  6.682E-02  1.864E+00
   1    3    7     3     3    1.4684E+00  1.9718E-01   1.2712E+00  0.000E+00  0.000E+00  0.000E+00  1.06987E+03  1.555E+00  8.218E+00  5.547E-02  1.777E+00
   1    4    8     3     4    1.2712E+00  2.2567E-01   1.0456E+00  0.000E+00  0.000E+00  0.000E+00  1.06682E+03  1.364E+00  7.455E+00  6.709E-02  1.682E+00
   1    5    8     3     5    1.0456E+00  1.5790E-01   8.8768E-01  0.000E+00  0.000E+00  0.000E+00  1.06362E+03  1.164E+00  6.655E+00  4.991E-02  1.582E+00
   1    6    8     3     6    8.8768E-01  5.5980E-02   8.3170E-01  0.000E+00  0.000E+00  0.000E+00  1.06158E+03  1.036E+00  6.145E+00  1.844E-02  1.518E+00
   1    5   10     4     1    1.0000E+01  9.0919E-02   9.9091E+00  0.000E+00  0.000E+00  0.000E+00  1.07836E+03  6.368E-01  1.000E+01  2.500E-02  1.212E+00
   1    5    9     4     2    9.9091E+00  1.8158E-01   9.7275E+00  0.000E+00  0.000E+00  0.000E+00  1.07154E+03  6.315E-01  1.000E+01  5.000E-02  1.211E+00
   1    6    8     4     3    9.7275E+00  1.2689E-01   9.6006E+00  0.000E+00  0.000E+00  0.000E+00  1.06381E+03  6.256E-01  1.000E+01  3.500E-02  1.209E+00
   1    6    8     5     1    1.0432E+01  2.2686E-01   1.0205E+01  0.000E+00  0.000E+00  0.000E+00  1.05868E+03  6.790E-01  1.542E+01  6.166E-02  1.226E+00
   1    7    7     5     2    1.0205E+01  2.7894E-01   9.9265E+00  0.000E+00  0.000E+00  0.000E+00  1.05417E+03  6.732E-01  1.519E+01  7.594E-02  1.224E+00
   1    8    7     5     3    9.9265E+00  1.9221E-01   9.7343E+00  0.000E+00  0.000E+00  0.000E+00  1.04992E+03  6.676E-01  1.497E+01  5.241E-02  1.223E+00
   1    8    6     5     4    9.7343E+00  1.3577E-01   9.5985E+00  0.000E+00  0.000E+00  0.000E+00  1.04691E+03  6.637E-01  1.482E+01  3.706E-02  1.221E+00
   1    9    6     6     1    4.4236E+01  2.8298E-01   4.3953E+01  0.000E+00  0.000E+00  0.000E+00  1.04444E+03  1.716E+00  1.200E+01  6.000E-02  1.572E+00
   1   10    7     6     2    4.3953E+01  2.8258E-01   4.3670E+01  0.000E+00  0.000E+00  0.000E+00  1.03989E+03  1.710E+00  1.200E+01  6.000E-02  1.570E+00
   1   11    7     6     3    4.3670E+01  2.8219E-01   4.3388E+01  0.000E+00  0.000E+00  0.000E+00  1.03534E+03  1.703E+00  1.200E+01  6.000E-02  1.568E+00
   1   12    7     6     4    4.3388E+01  2.8179E-01   4.3107E+01  0.000E+00  0.000E+00  0.000E+00  1.03079E+03  1.696E+00  1.200E+01  6.000E-02  1.565E+00
   1   13    7     6     5    4.3107E+01  1.4942E-02   4.3092E+01  0.000E+00  0.000E+00  0.000E+00  1.02760E+03  1.693E+00  1.200E+01  2.400E-02  2.075E-01
   1   14    9     7     1    1.5000E+02  1.3513E+00   1.4865E+02  0.000E+00  0.000E+00  0.000E+00  1.03987E+03  2.288E+00  5.529E+01  5.593E-01  8.054E-01
   1   13    8     7     2    1.4865E+02  1.8756E+00   1.4677E+02  0.000E+00  0.000E+00  0.000E+00  1.03478E+03  2.279E+00  5.526E+01  6.148E-01  1.017E+00
   1   13    7     7     3    1.4677E+02  1.5133E+00   1.4526E+02  0.000E+00  0.000E+00  0.000E+00  1.02969E+03  2.270E+00  5.522E+01  5.584E-01  9.033E-01
   1   13    6     8     1    1.8835E+02  1.0282E+00   1.8732E+02  0.000E+00  0.000E+00  0.000E+00  1.02494E+03  3.065E+00  4.444E+01  4.528E-01  7.568E-01
   1   13    5     8     2    1.8732E+02  2.3902E-01   1.8708E+02  0.000E+00  0.000E+00  0.000E+00  1.01869E+03  3.061E+00  4.438E+01  4.523E-01  1.762E-01
   1   13    4     8     3    1.8708E+02 -2.2964E+00   1.8938E+02  0.000E+00  0.000E+00  0.000E+00  1.01244E+03  3.067E+00  4.447E+01  4.532E+00 -1.689E-01
   1   13    3     8     4    1.8938E+02 -3.5819E+00   1.9296E+02  0.000E+00  0.000E+00  0.000E+00  1.00621E+03  3.085E+00  4.473E+01  4.558E+00 -2.619E-01
   1   13    2     8     5    1.9296E+02 -2.5685E+00   1.9553E+02  0.000E+00  0.000E+00  0.000E+00  9.99979E+02  3.104E+00  4.500E+01  4.586E+00 -1.867E-01
   1   13    1     8     6    1.9553E+02 -2.0121E+00   1.9754E+02  0.000E+00  0.000E+00  0.000E+00  9.94992E+02  3.117E+00  4.520E+01  2.764E+00 -2.427E-01
   1    8    6     9     1    7.4593E+00  0.0000E+00   7.4593E+00  0.000E+00  0.000E+00  0.000E+00  1.08065E+03  1.901E+00  4.000E+00  0.000E+00  1.634E+00
   1    8    5     9     2    7.4593E+00  0.0000E+00   7.4593E+00  0.000E+00  0.000E+00  0.000E+00  1.08015E+03  1.901E+00  4.000E+00  0.000E+00  1.634E+00





UNSATURATED ZONE PACKAGE VOLUMETRIC BUDGET FOR  TIME STEP    30 STRESS PERIOD   42
  ------------------------------------------------------------------------------



     CUMULATIVE VOLUMES      L**3       RATES FOR THIS TIME STEP      L**3/T
     ------------------                 ------------------------

           IN:                                      IN:
           ---                                      ---
        INFILTRATION =  1593779481.6028          INFILTRATION =           8.3069

          OUT:                                     OUT:
          ----                                     ----
              UZF ET =  1314764966.2293                UZF ET =           8.3175
        UZF RECHARGE =    54083381.9624          UZF RECHARGE =       0.0000E+00

            IN - OUT =   224931133.4111              IN - OUT =      -1.0560E-02

          STORAGE:                                 STORAGE:
          --------                                 --------
      STORAGE CHANGE =   225113954.7376        STORAGE CHANGE =      -1.0561E-02

 PERCENT DISCREPANCY IS DIFFERENCE BETWEEN IN-OUT MINUS CHANGE IN STORAGE
 DIVIDED BY THE AVERAGE OF IN AND OUT TIMES 100

 PERCENT DISCREPANCY =          -0.00     PERCENT DISCREPANCY =           0.00






1
  VOLUMETRIC BUDGET FOR AGRICULTURAL FIELDS AT  END OF TIME STEP   30, STRESS PERIOD  42
  ------------------------------------------------------------------------------

     CUMULATIVE VOLUMES      L**3       RATES FOR THIS TIME STEP      L**3/T
     ------------------                 ------------------------

           IN:                                      IN:
           ---                                      ---
           AG WELLS      =   516505984.0000             AG WELLS      =           0.0000
      DIVERSION SEGMENTS =   985856064.0000        DIVERSION SEGMENTS =           7.4593
           GW IRRIGATION =           0.0000             GW IRRIGATION =           0.0000
           SW IRRIGATION =           0.0000             SW IRRIGATION =           0.0000
        SYSTEM LOSSES GW =           0.0000          SYSTEM LOSSES GW =           0.0000
        SYSTEM LOSSES SW =           0.0000          SYSTEM LOSSES SW =           0.0000

                TOTAL IN =  1502362112.0000                  TOTAL IN =           7.4593

          OUT:                                     OUT:
          ----                                     ----
           AG WELLS      =           0.0000             AG WELLS      =           0.0000
      DIVERSION SEGMENTS =           0.0000        DIVERSION SEGMENTS =           0.0000
           GW IRRIGATION =   516505984.0000             GW IRRIGATION =           0.0000
           SW IRRIGATION =   985875712.0000             SW IRRIGATION =           7.4594
        SYSTEM LOSSES GW =           0.0000          SYSTEM LOSSES GW =           0.0000
        SYSTEM LOSSES SW =           0.0000          SYSTEM LOSSES SW =           0.0000

               TOTAL OUT =  1502381696.0000                 TOTAL OUT =           7.4594

                IN - OUT =      -19584.0000                  IN - OUT =      -1.4925E-04

     PERCENT DISCREPANCY =          -0.00         PERCENT DISCREPANCY =          -0.00



1
  VOLUMETRIC BUDGET FOR ENTIRE MODEL AT END OF TIME STEP   30, STRESS PERIOD  42
  ------------------------------------------------------------------------------

     CUMULATIVE VOLUMES      L**3       RATES FOR THIS TIME STEP      L**3/T
     ------------------                 ------------------------

           IN:                                      IN:
           ---                                      ---
             STORAGE     =   851799808.0000               STORAGE     =           3.5580
       CONSTANT HEAD     =           0.0000         CONSTANT HEAD     =           0.0000
     HEAD DEP BOUNDS     =    30865850.0000       HEAD DEP BOUNDS     =           0.2868
      STREAM LEAKAGE     =  1301043968.0000        STREAM LEAKAGE     =          12.7052
        UZF RECHARGE     =    54083364.0000          UZF RECHARGE     =           0.0000
               GW ET     =           0.0000                 GW ET     =           0.0000
     SURFACE LEAKAGE     =           0.0000       SURFACE LEAKAGE     =           0.0000
           AG WELLS      =           0.0000             AG WELLS      =           0.0000

                TOTAL IN =  2237793024.0000                  TOTAL IN =          16.5500

          OUT:                                     OUT:
          ----                                     ----
             STORAGE     =   539167104.0000               STORAGE     =           5.7977
       CONSTANT HEAD     =           0.0000         CONSTANT HEAD     =           0.0000
     HEAD DEP BOUNDS     =    31384638.0000       HEAD DEP BOUNDS     =           0.2934
      STREAM LEAKAGE     =  1147602816.0000        STREAM LEAKAGE     =          10.4589
        UZF RECHARGE     =           0.0000          UZF RECHARGE     =           0.0000
               GW ET     =     3143644.7500                 GW ET     =           0.0000
     SURFACE LEAKAGE     =           0.0000       SURFACE LEAKAGE     =           0.0000
           AG WELLS      =   516505984.0000             AG WELLS      =           0.0000

               TOTAL OUT =  2237804032.0000                 TOTAL OUT =          16.5499

                IN - OUT =      -11008.0000                  IN - OUT =       7.6294E-05

     PERCENT DISCREPANCY =          -0.00         PERCENT DISCREPANCY =           0.00






         TIME SUMMARY AT END OF TIME STEP   30 IN STRESS PERIOD   42
                    SECONDS     MINUTES      HOURS       DAYS        YEARS
                    -----------------------------------------------------------
   TIME STEP LENGTH  87667.      1461.1      24.352      1.0147     2.77799E-03
 STRESS PERIOD TIME 2.63000E+06  43833.      730.56      30.440     8.33397E-02
         TOTAL TIME 1.07916E+08 1.79859E+06  29977.      1249.0      3.4196    
1
1
                            STRESS PERIOD NO.   43, LENGTH =   2630000.    
                            -----------------------------------------------

                              NUMBER OF TIME STEPS =    30

                               MULTIPLIER FOR DELT =     1.000

                            INITIAL TIME STEP SIZE =   87666.66    

 REUSING NON-PARAMETER GHB CELLS FROM LAST STRESS PERIOD

      2 GHB CELLS

 REUSING STREAM SEGMENT DATA FROM LAST STRESS PERIOD



            AREAL INFILTRATION RATE
 READING ON UNIT   19 WITH FORMAT: (FREE)              

            1           2           3           4           5           6           7           8           9          10
 ........................................................................................................................
   1   1.0000E-10  2.0000E-10   0.000       0.000       0.000       0.000       0.000       0.000       0.000       0.000    
   2   2.0000E-10  1.0000E-10  2.0000E-10   0.000       0.000      8.0000E-10  8.0000E-10  5.0000E-10   0.000       0.000    
   3    0.000      5.0000E-10  1.0000E-10  1.0000E-10  8.0000E-10  8.0000E-10  5.0000E-10  5.0000E-10   0.000       0.000    
   4   8.0000E-10  5.0000E-10  1.0000E-10  1.0000E-10  1.0000E-10  1.0000E-10  1.0000E-10  1.0000E-10  2.0000E-10   0.000    
   5   8.0000E-10  5.0000E-10  1.0000E-10  1.0000E-10  1.0000E-10  1.0000E-10  1.0000E-10  1.0000E-10  1.0000E-10  1.0000E-10
   6   8.0000E-10  5.0000E-10  5.0000E-10  2.0000E-10  2.0000E-10  1.0000E-10  1.0000E-10  1.0000E-10  1.0000E-10  5.0000E-10
   7   8.0000E-10  5.0000E-10  5.0000E-10  2.0000E-10  2.0000E-10  1.0000E-10  1.0000E-10  2.0000E-10  2.0000E-10   0.000    
   8    0.000      5.0000E-10  5.0000E-10  2.0000E-10  2.0000E-10  1.0000E-10  1.0000E-10  2.0000E-10  5.0000E-10   0.000    
   9    0.000      5.0000E-10  5.0000E-10  2.0000E-10  2.0000E-10  1.0000E-10  1.0000E-10  2.0000E-10  5.0000E-10   0.000    
  10    0.000      5.0000E-10  5.0000E-10  2.0000E-10  2.0000E-10  1.0000E-10  1.0000E-10  2.0000E-10  5.0000E-10  8.0000E-10
  11    0.000      1.0000E-10  1.0000E-10  1.0000E-10  1.0000E-10  1.0000E-10  1.0000E-10  2.0000E-10  5.0000E-10   0.000    
  12   1.0000E-10  1.0000E-10  1.0000E-10  1.0000E-10  1.0000E-10  1.0000E-10  1.0000E-10  1.0000E-10  2.0000E-10   0.000    
  13   1.0000E-10  1.0000E-10  2.0000E-10  2.0000E-10  2.0000E-10  2.0000E-10  2.0000E-10  1.0000E-10  1.0000E-10   0.000    
  14    0.000      2.0000E-10  5.0000E-10  5.0000E-10  5.0000E-10  5.0000E-10  5.0000E-10  2.0000E-10  1.0000E-10   0.000    
  15    0.000       0.000      8.0000E-10  8.0000E-10  8.0000E-10  8.0000E-10   0.000       0.000       0.000       0.000    

                  ET RATE =  1.500000E-07

 USING ET EXTINCTION DEPTH FROM PREVIOUS STRESS PERIOD. CURRENT PERIOD IS:      43

 USING EXTINCTION WATER CONTENT FROM PREVIOUS STRESS PERIOD. CURRENT PERIOD IS:      43

 USING AIR ENTRY PRESSURE FROM PREVIOUS STRESS PERIOD. CURRENT PERIOD IS:      43

 USING ROOT PRESSURE HEAD FROM PREVIOUS STRESS PERIOD. CURRENT PERIOD IS:      43

 USING ROOT ACTIVITY FROM PREVIOUS STRESS PERIOD. CURRENT PERIOD IS:      43

 PROCESSING AG STRESS PERIOD DATA

 READING AG STRESS PERIOD DATA

 READING IRRIGATION SEGMENT

 READING IRRIGATION WELL

 READING SUPPLEMENTAL WELL

 END PROCESSING AG STRESS PERIOD DATA OPTIONS
 
 SOLVING FOR HEAD 
                                                   Max.-Head-Change                         Max.-Flux-Residual
  Residual-Control   Outer-Iter.   Inner-Iter.     Column Row Layer    Maximum-Head-Change  Column Row Layer    Maximum-Flux-Residual          L2-NORM 
          0                 1           2             4    7     1       0.1693292684E-01       5    7    1         0.8872924692E+00      0.2288997063E+01
          0                 2           2             4    7     1      -0.7725411910E-01       5    7    1        -0.4146909105E+01      0.1017121954E+02
          0                 3           2             4    7     1       0.6404854662E-01       4    7    1         0.3533906660E+01      0.8656348074E+01
          0                 4           2             4    7     1      -0.2548577258E-02       4    7    1        -0.1445349166E+00      0.3541246103E+00
          0                 5           1             4    7     1       0.3142502066E-04       4    7    1         0.1831459597E-02      0.4539349627E-02

    ------------------------------------------------
       NWT REQUIRED            5 OUTER ITERATIONS 
       AND A TOTAL OF          9 INNER ITERATIONS.
    ------------------------------------------------

 NO OUTPUT CONTROL FOR STRESS PERIOD   43   TIME STEP    1
 
 SOLVING FOR HEAD 
                                                   Max.-Head-Change                         Max.-Flux-Residual
  Residual-Control   Outer-Iter.   Inner-Iter.     Column Row Layer    Maximum-Head-Change  Column Row Layer    Maximum-Flux-Residual          L2-NORM 
          0                 1           2             4    7     1       0.1687556959E-01       4    7    1         0.8837476607E+00      0.2200713982E+01
          0                 2           2             7   13     1      -0.3048260588E-02       7   13    1        -0.1691433973E+00      0.2766877941E+00
          0                 3           2             7   13     1       0.2075162131E-03       7   13    1         0.1183675044E-01      0.1936185778E-01
          0                 4           1             7   13     1      -0.8253301953E-05       7   13    1        -0.4838958228E-03      0.7915883741E-03

    ------------------------------------------------
       NWT REQUIRED            4 OUTER ITERATIONS 
       AND A TOTAL OF          7 INNER ITERATIONS.
    ------------------------------------------------

 NO OUTPUT CONTROL FOR STRESS PERIOD   43   TIME STEP    2
 
 SOLVING FOR HEAD 
                                                   Max.-Head-Change                         Max.-Flux-Residual
  Residual-Control   Outer-Iter.   Inner-Iter.     Column Row Layer    Maximum-Head-Change  Column Row Layer    Maximum-Flux-Residual          L2-NORM 
          0                 1           2             4    7     1       0.1673492460E-01       4    7    1         0.8768360128E+00      0.2139798606E+01
          0                 2           2             4    7     1      -0.7140007234E-01       4    7    1        -0.3832683800E+01      0.9418253796E+01
          0                 3           2             4    7     1       0.7273679177E-01       4    7    1         0.4013286250E+01      0.9829822990E+01
          0                 4           2             4    7     1      -0.2894298113E-02       4    7    1        -0.1641414648E+00      0.4020039186E+00
          0                 5           1             4    7     1       0.3568789657E-04       4    7    1         0.2079898040E-02      0.5102406789E-02

    ------------------------------------------------
       NWT REQUIRED            5 OUTER ITERATIONS 
       AND A TOTAL OF          9 INNER ITERATIONS.
    ------------------------------------------------

 NO OUTPUT CONTROL FOR STRESS PERIOD   43   TIME STEP    3
 
 SOLVING FOR HEAD 
                                                   Max.-Head-Change                         Max.-Flux-Residual
  Residual-Control   Outer-Iter.   Inner-Iter.     Column Row Layer    Maximum-Head-Change  Column Row Layer    Maximum-Flux-Residual          L2-NORM 
          0                 1           2             4    7     1       0.1658748518E-01       4    7    1         0.8695291571E+00      0.2094147037E+01
          0                 2           2             4    7     1      -0.1613511463E-02       4    7    1        -0.8695301002E-01      0.2093387287E+00
          0                 3           2             4    7     1      -0.6957023277E-01       5    8    1        -0.3734881193E+01      0.9188361882E+01
          0                 4           2             4    7     1       0.7252624299E-01       5    8    1         0.4001704204E+01      0.9802206635E+01
          0                 5           2             4    7     1      -0.2886604321E-02       5    8    1        -0.1637681813E+00      0.4011110882E+00
          0                 6           1             4    7     1       0.3561945489E-04       5    8    1         0.2077560697E-02      0.5088744093E-02

    ------------------------------------------------
       NWT REQUIRED            6 OUTER ITERATIONS 
       AND A TOTAL OF         11 INNER ITERATIONS.
    ------------------------------------------------

 NO OUTPUT CONTROL FOR STRESS PERIOD   43   TIME STEP    4
 
 SOLVING FOR HEAD 
                                                   Max.-Head-Change                         Max.-Flux-Residual
  Residual-Control   Outer-Iter.   Inner-Iter.     Column Row Layer    Maximum-Head-Change  Column Row Layer    Maximum-Flux-Residual          L2-NORM 
          0                 1           2             4    7     1       0.1643401360E-01       4    7    1         0.8618698329E+00      0.2051789850E+01
          0                 2           2             4    7     1      -0.1598583510E-02       4    7    1        -0.8618711612E-01      0.2050659270E+00
          0                 3           2             4    7     1      -0.6957210573E-01       5    8    1        -0.3735089406E+01      0.9188892456E+01
          0                 4           2             4    7     1       0.7252717641E-01       5    8    1         0.4001763777E+01      0.9802346326E+01
          0                 5           2             4    7     1      -0.2886641472E-02       5    8    1        -0.1637706178E+00      0.4011168081E+00
          0                 6           1             4    7     1       0.3561991314E-04       5    8    1         0.2077591605E-02      0.5088826899E-02

    ------------------------------------------------
       NWT REQUIRED            6 OUTER ITERATIONS 
       AND A TOTAL OF         11 INNER ITERATIONS.
    ------------------------------------------------

 NO OUTPUT CONTROL FOR STRESS PERIOD   43   TIME STEP    5
 
 SOLVING FOR HEAD 
                                                   Max.-Head-Change                         Max.-Flux-Residual
  Residual-Control   Outer-Iter.   Inner-Iter.     Column Row Layer    Maximum-Head-Change  Column Row Layer    Maximum-Flux-Residual          L2-NORM 
          0                 1           2             4    7     1       0.1627522759E-01       4    7    1         0.8538977507E+00      0.2012381466E+01
          0                 2           2             4    7     1      -0.1583138180E-02       4    7    1        -0.8538992304E-01      0.2010838870E+00
          0                 3           2             4    7     1      -0.6957400984E-01       5    8    1        -0.3735289098E+01      0.9189402981E+01
          0                 4           2             4    7     1       0.7252810664E-01       5    8    1         0.4001822518E+01      0.9802484637E+01
          0                 5           2             4    7     1      -0.2886678496E-02       5    8    1        -0.1637730205E+00      0.4011224495E+00
          0                 6           1             4    7     1       0.3562036983E-04       5    8    1         0.2077622054E-02      0.5088875780E-02

    ------------------------------------------------
       NWT REQUIRED            6 OUTER ITERATIONS 
       AND A TOTAL OF         11 INNER ITERATIONS.
    ------------------------------------------------

 NO OUTPUT CONTROL FOR STRESS PERIOD   43   TIME STEP    6
 
 SOLVING FOR HEAD 
                                                   Max.-Head-Change                         Max.-Flux-Residual
  Residual-Control   Outer-Iter.   Inner-Iter.     Column Row Layer    Maximum-Head-Change  Column Row Layer    Maximum-Flux-Residual          L2-NORM 
          0                 1           2             4    7     1       0.1611178662E-01       4    7    1         0.8456501189E+00      0.1975604800E+01
          0                 2           2             4    7     1      -0.1567240020E-02       4    7    1        -0.8456517307E-01      0.1973613628E+00
          0                 3           2             4    7     1      -0.6957592697E-01       5    8    1        -0.3735480011E+01      0.9189893137E+01
          0                 4           2             4    7     1       0.7252901957E-01       5    8    1         0.4001879694E+01      0.9802619723E+01
          0                 5           2             4    7     1      -0.2886714831E-02       5    8    1        -0.1637753592E+00      0.4011279778E+00
          0                 6           1             4    7     1       0.3562081857E-04       5    8    1         0.2077651702E-02      0.5088956676E-02

    ------------------------------------------------
       NWT REQUIRED            6 OUTER ITERATIONS 
       AND A TOTAL OF         11 INNER ITERATIONS.
    ------------------------------------------------

 NO OUTPUT CONTROL FOR STRESS PERIOD   43   TIME STEP    7
 
 SOLVING FOR HEAD 
                                                   Max.-Head-Change                         Max.-Flux-Residual
  Residual-Control   Outer-Iter.   Inner-Iter.     Column Row Layer    Maximum-Head-Change  Column Row Layer    Maximum-Flux-Residual          L2-NORM 
          0                 1           2             4    7     1       0.1594417267E-01       4    7    1         0.8371537605E+00      0.1941174222E+01
          0                 2           2             4    7     1      -0.1550935918E-02       4    7    1        -0.8371554867E-01      0.1938712124E+00
          0                 3           2             4    7     1      -0.6957785388E-01       5    8    1        -0.3735662585E+01      0.9190363817E+01
          0                 4           2             4    7     1       0.7252991506E-01       5    8    1         0.4001935336E+01      0.9802751609E+01
          0                 5           2             4    7     1      -0.2886750472E-02       5    8    1        -0.1637776353E+00      0.4011333620E+00
          0                 6           1             4    7     1       0.3562125801E-04       5    8    1         0.2077680582E-02      0.5089027576E-02

    ------------------------------------------------
       NWT REQUIRED            6 OUTER ITERATIONS 
       AND A TOTAL OF         11 INNER ITERATIONS.
    ------------------------------------------------

 NO OUTPUT CONTROL FOR STRESS PERIOD   43   TIME STEP    8
 
 SOLVING FOR HEAD 
                                                   Max.-Head-Change                         Max.-Flux-Residual
  Residual-Control   Outer-Iter.   Inner-Iter.     Column Row Layer    Maximum-Head-Change  Column Row Layer    Maximum-Flux-Residual          L2-NORM 
          0                 1           2             4    7     1       0.1577296242E-01       4    7    1         0.8284410352E+00      0.1908844561E+01
          0                 2           2             4    7     1      -0.1534281970E-02       4    7    1        -0.8284428597E-01      0.1905893727E+00
          0                 3           2             4    7     1      -0.6957979564E-01       5    8    1        -0.3735837820E+01      0.9190817493E+01
          0                 4           2             4    7     1       0.7253080217E-01       5    8    1         0.4001989991E+01      0.9802881601E+01
          0                 5           2             4    7     1      -0.2886785780E-02       5    8    1        -0.1637798710E+00      0.4011386786E+00
          0                 6           1             4    7     1       0.3562169352E-04       5    8    1         0.2077708908E-02      0.5089093046E-02

    ------------------------------------------------
       NWT REQUIRED            6 OUTER ITERATIONS 
       AND A TOTAL OF         11 INNER ITERATIONS.
    ------------------------------------------------

 NO OUTPUT CONTROL FOR STRESS PERIOD   43   TIME STEP    9
 
 SOLVING FOR HEAD 
                                                   Max.-Head-Change                         Max.-Flux-Residual
  Residual-Control   Outer-Iter.   Inner-Iter.     Column Row Layer    Maximum-Head-Change  Column Row Layer    Maximum-Flux-Residual          L2-NORM 
          0                 1           2             4    7     1       0.1559882440E-01       4    7    1         0.8195492141E+00      0.1878406537E+01
          0                 2           2             4    7     1      -0.1517343210E-02       4    7    1        -0.8195511224E-01      0.1874949887E+00
          0                 3           2             4    7     1      -0.6958174333E-01       5    8    1        -0.3736005853E+01      0.9191254518E+01
          0                 4           2             4    7     1       0.7253167606E-01       5    8    1         0.4002043429E+01      0.9803009081E+01
          0                 5           2             4    7     1      -0.2886820562E-02       5    8    1        -0.1637820571E+00      0.4011438921E+00
          0                 6           1             4    7     1       0.3562212299E-04       5    8    1         0.2077736628E-02      0.5089158596E-02

    ------------------------------------------------
       NWT REQUIRED            6 OUTER ITERATIONS 
       AND A TOTAL OF         11 INNER ITERATIONS.
    ------------------------------------------------

 NO OUTPUT CONTROL FOR STRESS PERIOD   43   TIME STEP   10
 
 SOLVING FOR HEAD 
                                                   Max.-Head-Change                         Max.-Flux-Residual
  Residual-Control   Outer-Iter.   Inner-Iter.     Column Row Layer    Maximum-Head-Change  Column Row Layer    Maximum-Flux-Residual          L2-NORM 
          0                 1           2             4    7     1       0.1542211688E-01       4    7    1         0.8104982189E+00      0.1849683260E+01
          0                 2           2             4    7     1      -0.1500154487E-02       4    7    1        -0.8105001978E-01      0.1845719075E+00
          0                 3           2             4    7     1      -0.6958369902E-01       5    8    1        -0.3736167325E+01      0.9191675939E+01
          0                 4           2             4    7     1       0.7253254125E-01       5    8    1         0.4002095934E+01      0.9803134707E+01
          0                 5           2             4    7     1      -0.2886854998E-02       5    8    1        -0.1637842050E+00      0.4011490279E+00
          0                 6           1             4    7     1       0.3562254809E-04       5    8    1         0.2077763864E-02      0.5089224155E-02

    ------------------------------------------------
       NWT REQUIRED            6 OUTER ITERATIONS 
       AND A TOTAL OF         11 INNER ITERATIONS.
    ------------------------------------------------

 NO OUTPUT CONTROL FOR STRESS PERIOD   43   TIME STEP   11
 
 SOLVING FOR HEAD 
                                                   Max.-Head-Change                         Max.-Flux-Residual
  Residual-Control   Outer-Iter.   Inner-Iter.     Column Row Layer    Maximum-Head-Change  Column Row Layer    Maximum-Flux-Residual          L2-NORM 
          0                 1           2             4    7     1       0.1524342992E-01       4    7    1         0.8013213668E+00      0.1822496826E+01
          0                 2           2             4    7     1      -0.1482773201E-02       4    7    1        -0.8013234045E-01      0.1818023390E+00
          0                 3           2             4    7     1      -0.6958565432E-01       5    8    1        -0.3736322375E+01      0.9192082457E+01
          0                 4           2             4    7     1       0.7253339294E-01       5    8    1         0.4002147276E+01      0.9803258682E+01
          0                 5           2             4    7     1      -0.2886888896E-02       5    8    1        -0.1637863055E+00      0.4011540953E+00
          0                 6           1             4    7     1       0.3562296614E-04       5    8    1         0.2077790519E-02      0.5089284549E-02

    ------------------------------------------------
       NWT REQUIRED            6 OUTER ITERATIONS 
       AND A TOTAL OF         11 INNER ITERATIONS.
    ------------------------------------------------

 NO OUTPUT CONTROL FOR STRESS PERIOD   43   TIME STEP   12
 
 SOLVING FOR HEAD 
                                                   Max.-Head-Change                         Max.-Flux-Residual
  Residual-Control   Outer-Iter.   Inner-Iter.     Column Row Layer    Maximum-Head-Change  Column Row Layer    Maximum-Flux-Residual          L2-NORM 
          0                 1           2             4    7     1       0.1506304402E-01       4    7    1         0.7920345101E+00      0.1796706812E+01
          0                 2           2             4    7     1      -0.1465226640E-02       4    7    1        -0.7920365957E-01      0.1791724121E+00
          0                 3           2             4    7     1      -0.6958760293E-01       5    8    1        -0.3736471058E+01      0.9192473573E+01
          0                 4           2             4    7     1       0.7253422640E-01       5    8    1         0.4002197221E+01      0.9803378789E+01
          0                 5           2             4    7     1      -0.2886922068E-02       5    8    1        -0.1637883489E+00      0.4011590117E+00
          0                 6           1             4    7     1       0.3562337578E-04       5    8    1         0.2077816420E-02      0.5089348522E-02

    ------------------------------------------------
       NWT REQUIRED            6 OUTER ITERATIONS 
       AND A TOTAL OF         11 INNER ITERATIONS.
    ------------------------------------------------

 NO OUTPUT CONTROL FOR STRESS PERIOD   43   TIME STEP   13
 
 SOLVING FOR HEAD 
                                                   Max.-Head-Change                         Max.-Flux-Residual
  Residual-Control   Outer-Iter.   Inner-Iter.     Column Row Layer    Maximum-Head-Change  Column Row Layer    Maximum-Flux-Residual          L2-NORM 
          0                 1           2             4    7     1       0.1488135128E-01       4    7    1         0.7826595633E+00      0.1772194118E+01
          0                 2           2             4    7     1      -0.1447552943E-02       4    7    1        -0.7826616869E-01      0.1766712348E+00
          0                 3           2             4    7     1      -0.6958955112E-01       5    8    1        -0.3736614239E+01      0.9192852278E+01
          0                 4           2             4    7     1       0.7253505077E-01       5    8    1         0.4002246306E+01      0.9803497162E+01
          0                 5           2             4    7     1      -0.2886954879E-02       5    8    1        -0.1637903571E+00      0.4011638542E+00
          0                 6           1             4    7     1       0.3562378049E-04       5    8    1         0.2077841891E-02      0.5089399191E-02

    ------------------------------------------------
       NWT REQUIRED            6 OUTER ITERATIONS 
       AND A TOTAL OF         11 INNER ITERATIONS.
    ------------------------------------------------

 NO OUTPUT CONTROL FOR STRESS PERIOD   43   TIME STEP   14
 
 SOLVING FOR HEAD 
                                                   Max.-Head-Change                         Max.-Flux-Residual
  Residual-Control   Outer-Iter.   Inner-Iter.     Column Row Layer    Maximum-Head-Change  Column Row Layer    Maximum-Flux-Residual          L2-NORM 
          0                 1           2             4    7     1       0.1469884424E-01       4    7    1         0.7732242280E+00      0.1748840310E+01
          0                 2           2             4    7     1      -0.1429800026E-02       4    7    1        -0.7732263811E-01      0.1742856817E+00
          0                 3           2             4    7     1      -0.6959150006E-01       5    8    1        -0.3736752402E+01      0.9193219035E+01
          0                 4           2             4    7     1       0.7253587051E-01       5    6    1         0.4002294883E+01      0.9803614393E+01
          0                 5           2             4    7     1      -0.2886987506E-02       5    8    1        -0.1637923414E+00      0.4011686434E+00
          0                 6           1             4    7     1       0.3562418296E-04       5    8    1         0.2077867040E-02      0.5089465749E-02

    ------------------------------------------------
       NWT REQUIRED            6 OUTER ITERATIONS 
       AND A TOTAL OF         11 INNER ITERATIONS.
    ------------------------------------------------

 NO OUTPUT CONTROL FOR STRESS PERIOD   43   TIME STEP   15
 
 SOLVING FOR HEAD 
                                                   Max.-Head-Change                         Max.-Flux-Residual
  Residual-Control   Outer-Iter.   Inner-Iter.     Column Row Layer    Maximum-Head-Change  Column Row Layer    Maximum-Flux-Residual          L2-NORM 
          0                 1           2             4    7     1       0.1451570978E-01       4    7    1         0.7637392995E+00      0.1726552217E+01
          0                 2           2             4    7     1      -0.1411986065E-02       4    7    1        -0.7637414741E-01      0.1720083486E+00
          0                 3           2             4    7     1      -0.6959343516E-01       5    8    1        -0.3736885065E+01      0.9193572716E+01
          0                 4           2             4    7     1       0.7253667170E-01       5    6    1         0.4002342210E+01      0.9803728634E+01
          0                 5           2             4    7     1      -0.2887019394E-02       5    8    1        -0.1637942710E+00      0.4011733111E+00
          0                 6           1             4    7     1       0.3562457659E-04       5    8    1         0.2077891534E-02      0.5089528817E-02

    ------------------------------------------------
       NWT REQUIRED            6 OUTER ITERATIONS 
       AND A TOTAL OF         11 INNER ITERATIONS.
    ------------------------------------------------

 NO OUTPUT CONTROL FOR STRESS PERIOD   43   TIME STEP   16
 
 SOLVING FOR HEAD 
                                                   Max.-Head-Change                         Max.-Flux-Residual
  Residual-Control   Outer-Iter.   Inner-Iter.     Column Row Layer    Maximum-Head-Change  Column Row Layer    Maximum-Flux-Residual          L2-NORM 
          0                 1           2             4    7     1       0.1433225446E-01       4    7    1         0.7542218377E+00      0.1705239743E+01
          0                 2           2             4    7     1      -0.1394140884E-02       4    7    1        -0.7542240265E-01      0.1698293517E+00
          0                 3           2             4    7     1      -0.6959536328E-01       5    8    1        -0.3737013031E+01      0.9193915106E+01
          0                 4           2             4    7     1       0.7253746350E-01       5    6    1         0.4002366102E+01      0.9803811663E+01
          0                 5           2             4    7     1      -0.2887050909E-02       5    8    1        -0.1637695140E+00      0.4011367072E+00
          0                 6           1             4    7     1       0.3562496551E-04       5    8    1         0.2077266674E-02      0.5088343009E-02

    ------------------------------------------------
       NWT REQUIRED            6 OUTER ITERATIONS 
       AND A TOTAL OF         11 INNER ITERATIONS.
    ------------------------------------------------

 NO OUTPUT CONTROL FOR STRESS PERIOD   43   TIME STEP   17
 
 SOLVING FOR HEAD 
                                                   Max.-Head-Change                         Max.-Flux-Residual
  Residual-Control   Outer-Iter.   Inner-Iter.     Column Row Layer    Maximum-Head-Change  Column Row Layer    Maximum-Flux-Residual          L2-NORM 
          0                 1           2             4    7     1       0.1414888751E-01       4    7    1         0.7446951110E+00      0.1684830520E+01
          0                 2           2             4    7     1      -0.1376304290E-02       4    7    1        -0.7446973080E-01      0.1677420919E+00
          0                 3           2             4    7     1      -0.6959728169E-01       5    8    1        -0.3737136550E+01      0.9194247045E+01
          0                 4           2             4    7     1       0.7253824577E-01       5    6    1         0.4002411848E+01      0.9803922534E+01
          0                 5           2             4    7     1      -0.2887082045E-02       5    8    1        -0.1637713780E+00      0.4011412520E+00
          0                 6           1             4    7     1       0.3562534961E-04       5    8    1         0.2077290304E-02      0.5088402689E-02

    ------------------------------------------------
       NWT REQUIRED            6 OUTER ITERATIONS 
       AND A TOTAL OF         11 INNER ITERATIONS.
    ------------------------------------------------

 NO OUTPUT CONTROL FOR STRESS PERIOD   43   TIME STEP   18
 
 SOLVING FOR HEAD 
                                                   Max.-Head-Change                         Max.-Flux-Residual
  Residual-Control   Outer-Iter.   Inner-Iter.     Column Row Layer    Maximum-Head-Change  Column Row Layer    Maximum-Flux-Residual          L2-NORM 
          0                 1           2             4    7     1       0.1396558671E-01       4    7    1         0.7351582199E+00      0.1665253896E+01
          0                 2           2             4    7     1      -0.1358474121E-02       4    7    1        -0.7351604191E-01      0.1657392489E+00
          0                 3           2             4    7     1      -0.6959918609E-01       5    8    1        -0.3737255560E+01      0.9194568164E+01
          0                 4           2             4    7     1       0.7253901391E-01       5    8    1         0.4002452903E+01      0.9804012192E+01
          0                 5           2             4    7     1      -0.2887112618E-02       5    8    1        -0.1637732000E+00      0.4011192779E+00
          0                 6           1             4    7     1       0.3562572643E-04       5    8    1         0.2077313407E-02      0.5087652543E-02

    ------------------------------------------------
       NWT REQUIRED            6 OUTER ITERATIONS 
       AND A TOTAL OF         11 INNER ITERATIONS.
    ------------------------------------------------

 NO OUTPUT CONTROL FOR STRESS PERIOD   43   TIME STEP   19
 
 SOLVING FOR HEAD 
                                                   Max.-Head-Change                         Max.-Flux-Residual
  Residual-Control   Outer-Iter.   Inner-Iter.     Column Row Layer    Maximum-Head-Change  Column Row Layer    Maximum-Flux-Residual          L2-NORM 
          0                 1           2             4    7     1       0.1378285998E-01       4    7    1         0.7256395021E+00      0.1646447859E+01
          0                 2           2             4    7     1      -0.1340699787E-02       4    7    1        -0.7256416985E-01      0.1638143909E+00
          0                 3           2             4    7     1      -0.6960107755E-01       5    8    1        -0.3737370523E+01      0.9194879667E+01
          0                 4           2             4    7     1       0.7253977237E-01       5    8    1         0.4002496698E+01      0.9804119114E+01
          0                 5           2             4    7     1      -0.2887142806E-02       5    8    1        -0.1637749910E+00      0.4011236558E+00
          0                 6           1             4    7     1       0.3562609900E-04       5    8    1         0.2077336112E-02      0.5087705872E-02

    ------------------------------------------------
       NWT REQUIRED            6 OUTER ITERATIONS 
       AND A TOTAL OF         11 INNER ITERATIONS.
    ------------------------------------------------

 NO OUTPUT CONTROL FOR STRESS PERIOD   43   TIME STEP   20
 
 SOLVING FOR HEAD 
                                                   Max.-Head-Change                         Max.-Flux-Residual
  Residual-Control   Outer-Iter.   Inner-Iter.     Column Row Layer    Maximum-Head-Change  Column Row Layer    Maximum-Flux-Residual          L2-NORM 
          0                 1           2             4    7     1       0.1360092286E-01       4    7    1         0.7161505489E+00      0.1628380571E+01
          0                 2           2             4    7     1      -0.1323002253E-02       4    7    1        -0.7161527382E-01      0.1619655065E+00
          0                 3           2             4    7     1      -0.6960295464E-01       5    8    1        -0.3737481699E+01      0.9195181752E+01
          0                 4           2             4    7     1       0.7254052110E-01       5    6    1         0.4002521175E+01      0.9804207646E+01
          0                 5           2             4    7     1      -0.2887172606E-02       4    8    1        -0.1637546202E+00      0.4011043660E+00
          0                 6           1             4    7     1       0.3562646730E-04       4    8    1         0.2076835376E-02      0.5087046176E-02

    ------------------------------------------------
       NWT REQUIRED            6 OUTER ITERATIONS 
       AND A TOTAL OF         11 INNER ITERATIONS.
    ------------------------------------------------

 NO OUTPUT CONTROL FOR STRESS PERIOD   43   TIME STEP   21
 
 SOLVING FOR HEAD 
                                                   Max.-Head-Change                         Max.-Flux-Residual
  Residual-Control   Outer-Iter.   Inner-Iter.     Column Row Layer    Maximum-Head-Change  Column Row Layer    Maximum-Flux-Residual          L2-NORM 
          0                 1           2             4    7     1       0.1341968078E-01       4    7    1         0.7066877878E+00      0.1610973349E+01
          0                 2           2             4    7     1      -0.1305372323E-02       4    7    1        -0.7066899658E-01      0.1601828041E+00
          0                 3           2             4    7     1      -0.6960481798E-01       5    8    1        -0.3737589167E+01      0.9195475334E+01
          0                 4           2             4    7     1       0.7254126013E-01       5    6    1         0.4002563659E+01      0.9804311307E+01
          0                 5           2             4    7     1      -0.2887202020E-02       4    8    1        -0.1637563449E+00      0.4011085997E+00
          0                 6           1             4    7     1       0.3562682990E-04       4    8    1         0.2076857244E-02      0.5087101560E-02

    ------------------------------------------------
       NWT REQUIRED            6 OUTER ITERATIONS 
       AND A TOTAL OF         11 INNER ITERATIONS.
    ------------------------------------------------

 NO OUTPUT CONTROL FOR STRESS PERIOD   43   TIME STEP   22
 
 SOLVING FOR HEAD 
                                                   Max.-Head-Change                         Max.-Flux-Residual
  Residual-Control   Outer-Iter.   Inner-Iter.     Column Row Layer    Maximum-Head-Change  Column Row Layer    Maximum-Flux-Residual          L2-NORM 
          0                 1           2             4    7     1       0.1323958555E-01       4    7    1         0.6972758100E+00      0.1594196832E+01
          0                 2           2             4    7     1      -0.1287853945E-02       4    7    1        -0.6972779733E-01      0.1584652853E+00
          0                 3           2             4    7     1      -0.6960665569E-01       5    8    1        -0.3737692693E+01      0.9195759059E+01
          0                 4           2             4    7     1       0.7254198007E-01       5    6    1         0.4002604905E+01      0.9804412113E+01
          0                 5           2             4    7     1      -0.2887230674E-02       4    8    1        -0.1637580226E+00      0.4011127329E+00
          0                 6           1             4    7     1       0.3562718342E-04       4    8    1         0.2076878505E-02      0.5087148154E-02

    ------------------------------------------------
       NWT REQUIRED            6 OUTER ITERATIONS 
       AND A TOTAL OF         11 INNER ITERATIONS.
    ------------------------------------------------

 NO OUTPUT CONTROL FOR STRESS PERIOD   43   TIME STEP   23
 
 SOLVING FOR HEAD 
                                                   Max.-Head-Change                         Max.-Flux-Residual
  Residual-Control   Outer-Iter.   Inner-Iter.     Column Row Layer    Maximum-Head-Change  Column Row Layer    Maximum-Flux-Residual          L2-NORM 
          0                 1           2             4    7     1       0.1306065819E-01       4    7    1         0.6879159203E+00      0.1578017466E+01
          0                 2           2             4    7     1      -0.1270449164E-02       4    7    1        -0.6879180657E-01      0.1568086966E+00
          0                 3           2             4    7     1      -0.6960848983E-01       5    8    1        -0.3737793635E+01      0.9196036616E+01
          0                 4           2             4    7     1       0.7254270404E-01       5    6    1         0.4002646209E+01      0.9804513164E+01
          0                 5           2             4    7     1      -0.2887259489E-02       4    8    1        -0.1637597054E+00      0.4011168321E+00
          0                 6           1             4    7     1       0.3562753907E-04       4    8    1         0.2076899841E-02      0.5087196095E-02

    ------------------------------------------------
       NWT REQUIRED            6 OUTER ITERATIONS 
       AND A TOTAL OF         11 INNER ITERATIONS.
    ------------------------------------------------

 NO OUTPUT CONTROL FOR STRESS PERIOD   43   TIME STEP   24
 
 SOLVING FOR HEAD 
                                                   Max.-Head-Change                         Max.-Flux-Residual
  Residual-Control   Outer-Iter.   Inner-Iter.     Column Row Layer    Maximum-Head-Change  Column Row Layer    Maximum-Flux-Residual          L2-NORM 
          0                 1           2             4    7     1       0.1288317460E-01       4    7    1         0.6786239561E+00      0.1562394181E+01
          0                 2           2             4    7     1      -0.1253184819E-02       4    7    1        -0.6786260813E-01      0.1552091916E+00
          0                 3           2             4    7     1      -0.6961029637E-01       5    8    1        -0.3737890958E+01      0.9196305198E+01
          0                 4           2             4    7     1       0.7254340883E-01       5    6    1         0.4002686297E+01      0.9804611438E+01
          0                 5           2             4    7     1      -0.2887287541E-02       4    8    1        -0.1637613418E+00      0.4011208815E+00
          0                 6           1             4    7     1       0.3562788542E-04       4    8    1         0.2076920590E-02      0.5087251783E-02

    ------------------------------------------------
       NWT REQUIRED            6 OUTER ITERATIONS 
       AND A TOTAL OF         11 INNER ITERATIONS.
    ------------------------------------------------

 NO OUTPUT CONTROL FOR STRESS PERIOD   43   TIME STEP   25
 
 SOLVING FOR HEAD 
                                                   Max.-Head-Change                         Max.-Flux-Residual
  Residual-Control   Outer-Iter.   Inner-Iter.     Column Row Layer    Maximum-Head-Change  Column Row Layer    Maximum-Flux-Residual          L2-NORM 
          0                 1           2             4    7     1       0.1270712102E-01       4    7    1         0.6693994751E+00      0.1547302967E+01
          0                 2           2             4    7     1      -0.1236059571E-02       4    7    1        -0.6694015774E-01      0.1536637612E+00
          0                 3           2             4    7     1      -0.6961208428E-01       5    8    1        -0.3737985236E+01      0.9196566276E+01
          0                 4           2             4    7     1       0.7254410370E-01       5    6    1         0.4002725690E+01      0.9804708099E+01
          0                 5           2             4    7     1      -0.2887315198E-02       4    8    1        -0.1637629523E+00      0.4011248310E+00
          0                 6           1             4    7     1       0.3562822674E-04       4    8    1         0.2076941011E-02      0.5087297933E-02

    ------------------------------------------------
       NWT REQUIRED            6 OUTER ITERATIONS 
       AND A TOTAL OF         11 INNER ITERATIONS.
    ------------------------------------------------

 NO OUTPUT CONTROL FOR STRESS PERIOD   43   TIME STEP   26
 
 SOLVING FOR HEAD 
                                                   Max.-Head-Change                         Max.-Flux-Residual
  Residual-Control   Outer-Iter.   Inner-Iter.     Column Row Layer    Maximum-Head-Change  Column Row Layer    Maximum-Flux-Residual          L2-NORM 
          0                 1           2             4    7     1       0.1253261278E-01       4    7    1         0.6602491378E+00      0.1532706431E+01
          0                 2           2             4    7     1      -0.1219084639E-02       4    7    1        -0.6602512152E-01      0.1521690550E+00
          0                 3           2             4    7     1      -0.6961385723E-01       5    8    1        -0.3738076902E+01      0.9196821051E+01
          0                 4           2             4    7     1       0.7254479325E-01       5    6    1         0.4002764662E+01      0.9804803848E+01
          0                 5           2             4    7     1      -0.2887342643E-02       4    8    1        -0.1637645479E+00      0.4011287550E+00
          0                 6           1             4    7     1       0.3562856525E-04       4    8    1         0.2076961243E-02      0.5087354734E-02

    ------------------------------------------------
       NWT REQUIRED            6 OUTER ITERATIONS 
       AND A TOTAL OF         11 INNER ITERATIONS.
    ------------------------------------------------

 NO OUTPUT CONTROL FOR STRESS PERIOD   43   TIME STEP   27
 
 SOLVING FOR HEAD 
                                                   Max.-Head-Change                         Max.-Flux-Residual
  Residual-Control   Outer-Iter.   Inner-Iter.     Column Row Layer    Maximum-Head-Change  Column Row Layer    Maximum-Flux-Residual          L2-NORM 
          0                 1           2             4    7     1       0.1235988991E-01       4    7    1         0.6511862978E+00      0.1518583666E+01
          0                 2           2             4    7     1      -0.1202283374E-02       4    7    1        -0.6511883486E-01      0.1507229392E+00
          0                 3           2             4    7     1      -0.6961560476E-01       5    8    1        -0.3738165554E+01      0.9197068397E+01
          0                 4           2             4    7     1       0.7254546815E-01       5    6    1         0.4002802703E+01      0.9804897413E+01
          0                 5           2             4    7     1      -0.2887369505E-02       4    8    1        -0.1637661076E+00      0.4011325737E+00
          0                 6           1             4    7     1       0.3562889659E-04       4    8    1         0.2076981038E-02      0.5087399333E-02

    ------------------------------------------------
       NWT REQUIRED            6 OUTER ITERATIONS 
       AND A TOTAL OF         11 INNER ITERATIONS.
    ------------------------------------------------

 NO OUTPUT CONTROL FOR STRESS PERIOD   43   TIME STEP   28
 
 SOLVING FOR HEAD 
                                                   Max.-Head-Change                         Max.-Flux-Residual
  Residual-Control   Outer-Iter.   Inner-Iter.     Column Row Layer    Maximum-Head-Change  Column Row Layer    Maximum-Flux-Residual          L2-NORM 
          0                 1           2             4    7     1       0.1218889901E-01       4    7    1         0.6422086526E+00      0.1504912502E+01
          0                 2           2             4    7     1      -0.1185650580E-02       4    7    1        -0.6422106754E-01      0.1493238823E+00
          0                 3           2             4    7     1      -0.6961733609E-01       5    8    1        -0.3738251795E+01      0.9197309460E+01
          0                 4           2             4    7     1       0.7254613768E-01       5    6    1         0.4002840333E+01      0.9804990069E+01
          0                 5           2             4    7     1      -0.2887396152E-02       4    8    1        -0.1637676528E+00      0.4011363676E+00
          0                 6           1             4    7     1       0.3562922558E-04       4    8    1         0.2077000614E-02      0.5087447982E-02

    ------------------------------------------------
       NWT REQUIRED            6 OUTER ITERATIONS 
       AND A TOTAL OF         11 INNER ITERATIONS.
    ------------------------------------------------

 NO OUTPUT CONTROL FOR STRESS PERIOD   43   TIME STEP   29
 
 SOLVING FOR HEAD 
                                                   Max.-Head-Change                         Max.-Flux-Residual
  Residual-Control   Outer-Iter.   Inner-Iter.     Column Row Layer    Maximum-Head-Change  Column Row Layer    Maximum-Flux-Residual          L2-NORM 
          0                 1           2             4    7     1       0.1201972042E-01       4    7    1         0.6333208071E+00      0.1491666927E+01
          0                 2           2             4    7     1      -0.1169194072E-02       4    7    1        -0.6333228006E-01      0.1479677901E+00
          0                 3           2             4    7     1      -0.6961904626E-01       5    8    1        -0.3738335504E+01      0.9197544559E+01
          0                 4           2             4    7     1       0.7254679717E-01       5    6    1         0.4002877304E+01      0.9805081205E+01
          0                 5           2             4    7     1      -0.2887422402E-02       4    8    1        -0.1637691727E+00      0.4011400924E+00
          0                 6           1             4    7     1       0.3562954964E-04       4    8    1         0.2077019898E-02      0.5087491612E-02

    ------------------------------------------------
       NWT REQUIRED            6 OUTER ITERATIONS 
       AND A TOTAL OF         11 INNER ITERATIONS.
    ------------------------------------------------

 NO OUTPUT CONTROL FOR STRESS PERIOD   43   TIME STEP   30



 STREAM LISTING     PERIOD     43   STEP       30

 LAYER ROW COL. STREAM  RCH.  FLOW INTO     FLOW TO   FLOW OUT OF   OVRLND.     DIRECT     STREAM       STREAM     STREAM     STREAM   STREAMBED  STREAMBED
                SEG.NO.  NO.  STRM. RCH.    AQUIFER    STRM. RCH.    RUNOFF     PRECIP       ET          HEAD       DEPTH      WIDTH   CONDCTNC.   GRADIENT

   1    1    1     1     1    4.3499E+01  3.1564E-01   4.3183E+01  0.000E+00  0.000E+00  0.000E+00  1.09440E+03  1.356E+00  1.610E+01  7.246E-02  1.452E+00
   1    2    2     1     2    4.3183E+01  4.8894E-01   4.2694E+01  0.000E+00  0.000E+00  0.000E+00  1.08941E+03  1.354E+00  1.604E+01  1.123E-01  1.451E+00
   1    3    3     1     3    4.2694E+01  4.1710E-01   4.2277E+01  0.000E+00  0.000E+00  0.000E+00  1.08377E+03  1.350E+00  1.598E+01  9.588E-02  1.450E+00
   1    3    4     1     4    4.2277E+01  3.8418E-01   4.1893E+01  0.000E+00  0.000E+00  0.000E+00  1.07876E+03  1.347E+00  1.592E+01  8.837E-02  1.449E+00
   1    4    5     2     1    3.9893E+01  3.5834E-01   3.9534E+01  0.000E+00  0.000E+00  0.000E+00  1.07353E+03  1.594E+00  1.200E+01  7.800E-02  1.531E+00
   1    5    6     2     2    3.9534E+01  2.7519E-01   3.9259E+01  0.000E+00  0.000E+00  0.000E+00  1.06810E+03  1.586E+00  1.200E+01  6.000E-02  1.529E+00
   1    6    6     2     3    3.9259E+01  2.7479E-01   3.8985E+01  0.000E+00  0.000E+00  0.000E+00  1.06337E+03  1.580E+00  1.200E+01  6.000E-02  1.527E+00
   1    7    6     2     4    3.8985E+01  2.7439E-01   3.8710E+01  0.000E+00  0.000E+00  0.000E+00  1.05865E+03  1.573E+00  1.200E+01  6.000E-02  1.524E+00
   1    8    6     2     5    3.8710E+01  2.7399E-01   3.8436E+01  0.000E+00  0.000E+00  0.000E+00  1.05392E+03  1.566E+00  1.200E+01  6.000E-02  1.522E+00
   1    3    5     3     1    2.0000E+00  2.8252E-01   1.7175E+00  0.000E+00  0.000E+00  0.000E+00  1.07555E+03  1.909E+00  9.636E+00  7.227E-02  1.955E+00
   1    3    6     3     2    1.7175E+00  2.4905E-01   1.4684E+00  0.000E+00  0.000E+00  0.000E+00  1.07264E+03  1.727E+00  8.909E+00  6.682E-02  1.864E+00
   1    3    7     3     3    1.4684E+00  1.9718E-01   1.2712E+00  0.000E+00  0.000E+00  0.000E+00  1.06987E+03  1.555E+00  8.218E+00  5.547E-02  1.777E+00
   1    4    8     3     4    1.2712E+00  2.2567E-01   1.0456E+00  0.000E+00  0.000E+00  0.000E+00  1.06682E+03  1.364E+00  7.455E+00  6.709E-02  1.682E+00
   1    5    8     3     5    1.0456E+00  1.5790E-01   8.8768E-01  0.000E+00  0.000E+00  0.000E+00  1.06362E+03  1.164E+00  6.655E+00  4.991E-02  1.582E+00
   1    6    8     3     6    8.8768E-01  5.5980E-02   8.3170E-01  0.000E+00  0.000E+00  0.000E+00  1.06158E+03  1.036E+00  6.145E+00  1.844E-02  1.518E+00
   1    5   10     4     1    1.0000E+01  9.0919E-02   9.9091E+00  0.000E+00  0.000E+00  0.000E+00  1.07836E+03  6.368E-01  1.000E+01  2.500E-02  1.212E+00
   1    5    9     4     2    9.9091E+00  1.8158E-01   9.7275E+00  0.000E+00  0.000E+00  0.000E+00  1.07154E+03  6.315E-01  1.000E+01  5.000E-02  1.211E+00
   1    6    8     4     3    9.7275E+00  1.2689E-01   9.6006E+00  0.000E+00  0.000E+00  0.000E+00  1.06381E+03  6.256E-01  1.000E+01  3.500E-02  1.209E+00
   1    6    8     5     1    1.0432E+01  2.2686E-01   1.0205E+01  0.000E+00  0.000E+00  0.000E+00  1.05868E+03  6.790E-01  1.542E+01  6.166E-02  1.226E+00
   1    7    7     5     2    1.0205E+01  2.7894E-01   9.9265E+00  0.000E+00  0.000E+00  0.000E+00  1.05417E+03  6.732E-01  1.519E+01  7.594E-02  1.224E+00
   1    8    7     5     3    9.9265E+00  1.9221E-01   9.7343E+00  0.000E+00  0.000E+00  0.000E+00  1.04992E+03  6.676E-01  1.497E+01  5.241E-02  1.223E+00
   1    8    6     5     4    9.7343E+00  1.3577E-01   9.5985E+00  0.000E+00  0.000E+00  0.000E+00  1.04691E+03  6.637E-01  1.482E+01  3.706E-02  1.221E+00
   1    9    6     6     1    2.5588E+01  2.5407E-01   2.5334E+01  0.000E+00  0.000E+00  0.000E+00  1.04396E+03  1.235E+00  1.200E+01  6.000E-02  1.412E+00
   1   10    7     6     2    2.5334E+01  2.5363E-01   2.5080E+01  0.000E+00  0.000E+00  0.000E+00  1.03941E+03  1.227E+00  1.200E+01  6.000E-02  1.409E+00
   1   11    7     6     3    2.5080E+01  2.5318E-01   2.4827E+01  0.000E+00  0.000E+00  0.000E+00  1.03486E+03  1.220E+00  1.200E+01  6.000E-02  1.407E+00
   1   12    7     6     4    2.4827E+01  2.5274E-01   2.4574E+01  0.000E+00  0.000E+00  0.000E+00  1.03030E+03  1.212E+00  1.200E+01  6.000E-02  1.404E+00
   1   13    7     6     5    2.4574E+01  3.4576E-03   2.4571E+01  0.000E+00  0.000E+00  0.000E+00  1.02712E+03  1.208E+00  1.200E+01  2.400E-02  4.802E-02
   1   14    9     7     1    1.5000E+02  1.3519E+00   1.4865E+02  0.000E+00  0.000E+00  0.000E+00  1.03987E+03  2.288E+00  5.529E+01  5.593E-01  8.057E-01
   1   13    8     7     2    1.4865E+02  1.8754E+00   1.4677E+02  0.000E+00  0.000E+00  0.000E+00  1.03478E+03  2.279E+00  5.526E+01  6.148E-01  1.017E+00
   1   13    7     7     3    1.4677E+02  1.5166E+00   1.4526E+02  0.000E+00  0.000E+00  0.000E+00  1.02969E+03  2.270E+00  5.522E+01  5.584E-01  9.053E-01
   1   13    6     8     1    1.6983E+02  9.5236E-01   1.6887E+02  0.000E+00  0.000E+00  0.000E+00  1.02482E+03  2.948E+00  4.275E+01  4.356E-01  7.288E-01
   1   13    5     8     2    1.6887E+02  1.9453E-01   1.6868E+02  0.000E+00  0.000E+00  0.000E+00  1.01857E+03  2.944E+00  4.269E+01  4.350E-01  1.490E-01
   1   13    4     8     3    1.6868E+02 -2.3963E+00   1.7108E+02  0.000E+00  0.000E+00  0.000E+00  1.01233E+03  2.951E+00  4.280E+01  4.361E+00 -1.832E-01
   1   13    3     8     4    1.7108E+02 -3.6385E+00   1.7471E+02  0.000E+00  0.000E+00  0.000E+00  1.00610E+03  2.971E+00  4.308E+01  4.390E+00 -2.763E-01
   1   13    2     8     5    1.7471E+02 -2.6047E+00   1.7732E+02  0.000E+00  0.000E+00  0.000E+00  9.99866E+02  2.991E+00  4.337E+01  4.419E+00 -1.965E-01
   1   13    1     8     6    1.7732E+02 -2.0360E+00   1.7936E+02  0.000E+00  0.000E+00  0.000E+00  9.94881E+02  3.006E+00  4.358E+01  2.665E+00 -2.547E-01
   1    8    6     9     1    2.2447E+01  0.0000E+00   2.2447E+01  0.000E+00  0.000E+00  0.000E+00  1.08243E+03  3.681E+00  4.000E+00  0.000E+00  2.227E+00
   1    8    5     9     2    2.2447E+01  0.0000E+00   2.2447E+01  0.000E+00  0.000E+00  0.000E+00  1.08193E+03  3.681E+00  4.000E+00  0.000E+00  2.227E+00





UNSATURATED ZONE PACKAGE VOLUMETRIC BUDGET FOR  TIME STEP    30 STRESS PERIOD   43
  ------------------------------------------------------------------------------



     CUMULATIVE VOLUMES      L**3       RATES FOR THIS TIME STEP      L**3/T
     ------------------                 ------------------------

           IN:                                      IN:
           ---                                      ---
        INFILTRATION =  1655212041.8139          INFILTRATION =          23.2949

          OUT:                                     OUT:
          ----                                     ----
              UZF ET =  1376090248.7307                UZF ET =          23.3175
        UZF RECHARGE =    54083381.9624          UZF RECHARGE =       0.0000E+00

            IN - OUT =   225038411.1208              IN - OUT =      -2.2582E-02

          STORAGE:                                 STORAGE:
          --------                                 --------
      STORAGE CHANGE =   225221285.5078        STORAGE CHANGE =      -2.2585E-02

 PERCENT DISCREPANCY IS DIFFERENCE BETWEEN IN-OUT MINUS CHANGE IN STORAGE
 DIVIDED BY THE AVERAGE OF IN AND OUT TIMES 100

 PERCENT DISCREPANCY =          -0.00     PERCENT DISCREPANCY =           0.00






1
  VOLUMETRIC BUDGET FOR AGRICULTURAL FIELDS AT  END OF TIME STEP   30, STRESS PERIOD  43
  ------------------------------------------------------------------------------

     CUMULATIVE VOLUMES      L**3       RATES FOR THIS TIME STEP      L**3/T
     ------------------                 ------------------------

           IN:                                      IN:
           ---                                      ---
           AG WELLS      =   516934432.0000             AG WELLS      =           0.0000
      DIVERSION SEGMENTS =  1044630016.0000        DIVERSION SEGMENTS =          22.4470
           GW IRRIGATION =           0.0000             GW IRRIGATION =           0.0000
           SW IRRIGATION =           0.0000             SW IRRIGATION =           0.0000
        SYSTEM LOSSES GW =           0.0000          SYSTEM LOSSES GW =           0.0000
        SYSTEM LOSSES SW =           0.0000          SYSTEM LOSSES SW =           0.0000

                TOTAL IN =  1561564416.0000                  TOTAL IN =          22.4470

          OUT:                                     OUT:
          ----                                     ----
           AG WELLS      =           0.0000             AG WELLS      =           0.0000
      DIVERSION SEGMENTS =           0.0000        DIVERSION SEGMENTS =           0.0000
           GW IRRIGATION =   516934432.0000             GW IRRIGATION =           0.0000
           SW IRRIGATION =  1044650880.0000             SW IRRIGATION =          22.4474
        SYSTEM LOSSES GW =           0.0000          SYSTEM LOSSES GW =           0.0000
        SYSTEM LOSSES SW =           0.0000          SYSTEM LOSSES SW =           0.0000

               TOTAL OUT =  1561585280.0000                 TOTAL OUT =          22.4474

                IN - OUT =      -20864.0000                  IN - OUT =      -4.4823E-04

     PERCENT DISCREPANCY =          -0.00         PERCENT DISCREPANCY =          -0.00



1
  VOLUMETRIC BUDGET FOR ENTIRE MODEL AT END OF TIME STEP   30, STRESS PERIOD  43
  ------------------------------------------------------------------------------

     CUMULATIVE VOLUMES      L**3       RATES FOR THIS TIME STEP      L**3/T
     ------------------                 ------------------------

           IN:                                      IN:
           ---                                      ---
             STORAGE     =   859751296.0000               STORAGE     =           1.9290
       CONSTANT HEAD     =           0.0000         CONSTANT HEAD     =           0.0000
     HEAD DEP BOUNDS     =    31620232.0000       HEAD DEP BOUNDS     =           0.2869
      STREAM LEAKAGE     =  1333557632.0000        STREAM LEAKAGE     =          12.3719
        UZF RECHARGE     =    54083364.0000          UZF RECHARGE     =           0.0000
               GW ET     =           0.0000                 GW ET     =           0.0000
     SURFACE LEAKAGE     =           0.0000       SURFACE LEAKAGE     =           0.0000
           AG WELLS      =           0.0000             AG WELLS      =           0.0000

                TOTAL IN =  2279012608.0000                  TOTAL IN =          14.5878

          OUT:                                     OUT:
          ----                                     ----
             STORAGE     =   550177152.0000               STORAGE     =           3.6217
       CONSTANT HEAD     =           0.0000         CONSTANT HEAD     =           0.0000
     HEAD DEP BOUNDS     =    32151540.0000       HEAD DEP BOUNDS     =           0.2905
      STREAM LEAKAGE     =  1176616192.0000        STREAM LEAKAGE     =          10.6754
        UZF RECHARGE     =           0.0000          UZF RECHARGE     =           0.0000
               GW ET     =     3143644.7500                 GW ET     =           0.0000
     SURFACE LEAKAGE     =           0.0000       SURFACE LEAKAGE     =           0.0000
           AG WELLS      =   516934432.0000             AG WELLS      =           0.0000

               TOTAL OUT =  2279023104.0000                 TOTAL OUT =          14.5876

                IN - OUT =      -10496.0000                  IN - OUT =       1.8692E-04

     PERCENT DISCREPANCY =          -0.00         PERCENT DISCREPANCY =           0.00






         TIME SUMMARY AT END OF TIME STEP   30 IN STRESS PERIOD   43
                    SECONDS     MINUTES      HOURS       DAYS        YEARS
                    -----------------------------------------------------------
   TIME STEP LENGTH  87667.      1461.1      24.352      1.0147     2.77799E-03
 STRESS PERIOD TIME 2.63000E+06  43833.      730.56      30.440     8.33397E-02
         TOTAL TIME 1.10545E+08 1.84242E+06  30707.      1279.5      3.5030    
1
1
                            STRESS PERIOD NO.   44, LENGTH =   2630000.    
                            -----------------------------------------------

                              NUMBER OF TIME STEPS =    30

                               MULTIPLIER FOR DELT =     1.000

                            INITIAL TIME STEP SIZE =   87666.66    

 REUSING NON-PARAMETER GHB CELLS FROM LAST STRESS PERIOD

      2 GHB CELLS

 REUSING STREAM SEGMENT DATA FROM LAST STRESS PERIOD



            AREAL INFILTRATION RATE
 READING ON UNIT   19 WITH FORMAT: (FREE)              

            1           2           3           4           5           6           7           8           9          10
 ........................................................................................................................
   1   1.0000E-10  2.0000E-10   0.000       0.000       0.000       0.000       0.000       0.000       0.000       0.000    
   2   2.0000E-10  1.0000E-10  2.0000E-10   0.000       0.000      8.0000E-10  8.0000E-10  5.0000E-10   0.000       0.000    
   3    0.000      5.0000E-10  1.0000E-10  1.0000E-10  8.0000E-10  8.0000E-10  5.0000E-10  5.0000E-10   0.000       0.000    
   4   8.0000E-10  5.0000E-10  1.0000E-10  1.0000E-10  1.0000E-10  1.0000E-10  1.0000E-10  1.0000E-10  2.0000E-10   0.000    
   5   8.0000E-10  5.0000E-10  1.0000E-10  1.0000E-10  1.0000E-10  1.0000E-10  1.0000E-10  1.0000E-10  1.0000E-10  1.0000E-10
   6   8.0000E-10  5.0000E-10  5.0000E-10  2.0000E-10  2.0000E-10  1.0000E-10  1.0000E-10  1.0000E-10  1.0000E-10  5.0000E-10
   7   8.0000E-10  5.0000E-10  5.0000E-10  2.0000E-10  2.0000E-10  1.0000E-10  1.0000E-10  2.0000E-10  2.0000E-10   0.000    
   8    0.000      5.0000E-10  5.0000E-10  2.0000E-10  2.0000E-10  1.0000E-10  1.0000E-10  2.0000E-10  5.0000E-10   0.000    
   9    0.000      5.0000E-10  5.0000E-10  2.0000E-10  2.0000E-10  1.0000E-10  1.0000E-10  2.0000E-10  5.0000E-10   0.000    
  10    0.000      5.0000E-10  5.0000E-10  2.0000E-10  2.0000E-10  1.0000E-10  1.0000E-10  2.0000E-10  5.0000E-10  8.0000E-10
  11    0.000      1.0000E-10  1.0000E-10  1.0000E-10  1.0000E-10  1.0000E-10  1.0000E-10  2.0000E-10  5.0000E-10   0.000    
  12   1.0000E-10  1.0000E-10  1.0000E-10  1.0000E-10  1.0000E-10  1.0000E-10  1.0000E-10  1.0000E-10  2.0000E-10   0.000    
  13   1.0000E-10  1.0000E-10  2.0000E-10  2.0000E-10  2.0000E-10  2.0000E-10  2.0000E-10  1.0000E-10  1.0000E-10   0.000    
  14    0.000      2.0000E-10  5.0000E-10  5.0000E-10  5.0000E-10  5.0000E-10  5.0000E-10  2.0000E-10  1.0000E-10   0.000    
  15    0.000       0.000      8.0000E-10  8.0000E-10  8.0000E-10  8.0000E-10   0.000       0.000       0.000       0.000    

                  ET RATE =  4.000000E-07

 USING ET EXTINCTION DEPTH FROM PREVIOUS STRESS PERIOD. CURRENT PERIOD IS:      44

 USING EXTINCTION WATER CONTENT FROM PREVIOUS STRESS PERIOD. CURRENT PERIOD IS:      44

 USING AIR ENTRY PRESSURE FROM PREVIOUS STRESS PERIOD. CURRENT PERIOD IS:      44

 USING ROOT PRESSURE HEAD FROM PREVIOUS STRESS PERIOD. CURRENT PERIOD IS:      44

 USING ROOT ACTIVITY FROM PREVIOUS STRESS PERIOD. CURRENT PERIOD IS:      44

 PROCESSING AG STRESS PERIOD DATA

 READING AG STRESS PERIOD DATA

 READING IRRIGATION SEGMENT

 READING IRRIGATION WELL

 READING SUPPLEMENTAL WELL

 END PROCESSING AG STRESS PERIOD DATA OPTIONS
 
 SOLVING FOR HEAD 
                                                   Max.-Head-Change                         Max.-Flux-Residual
  Residual-Control   Outer-Iter.   Inner-Iter.     Column Row Layer    Maximum-Head-Change  Column Row Layer    Maximum-Flux-Residual          L2-NORM 
          0                 1           2             4    7     1       0.1185256342E-01       4    7    1         0.6245343022E+00      0.1438227610E+01
          0                 2           2             4    7     1      -0.1693761003E+00       4    7    1        -0.9091837265E+01      0.2223710927E+02
          0                 3           2             4    7     1       0.1153370727E-01       4    7    1         0.6364090898E+00      0.1556534810E+01
          0                 4           2             4    7     1      -0.4589378515E-03       4    7    1        -0.2602832220E-01      0.6366392363E-01
          0                 5           1             4    7     1       0.5658901127E-05       4    7    1         0.3297982021E-03      0.8072201192E-03

    ------------------------------------------------
       NWT REQUIRED            5 OUTER ITERATIONS 
       AND A TOTAL OF          9 INNER ITERATIONS.
    ------------------------------------------------

 NO OUTPUT CONTROL FOR STRESS PERIOD   44   TIME STEP    1
 
 SOLVING FOR HEAD 
                                                   Max.-Head-Change                         Max.-Flux-Residual
  Residual-Control   Outer-Iter.   Inner-Iter.     Column Row Layer    Maximum-Head-Change  Column Row Layer    Maximum-Flux-Residual          L2-NORM 
          0                 1           2             4    7     1       0.1260324217E-01       4    7    1         0.6594317173E+00      0.1837346403E+01
          0                 2           2             4    7     1      -0.1205744518E+00       4    7    1        -0.6471969589E+01      0.1592915689E+02
          0                 3           2             4    7     1       0.1206700059E+00       4    7    1         0.6658025624E+01      0.1630898842E+02
          0                 4           2             4    7     1      -0.4801663634E-02       4    7    1        -0.2723116144E+00      0.6670062012E+00
          0                 5           1             4    7     1       0.5920644514E-04       4    7    1         0.3450525179E-02      0.8469187807E-02

    ------------------------------------------------
       NWT REQUIRED            5 OUTER ITERATIONS 
       AND A TOTAL OF          9 INNER ITERATIONS.
    ------------------------------------------------

 NO OUTPUT CONTROL FOR STRESS PERIOD   44   TIME STEP    2
 
 SOLVING FOR HEAD 
                                                   Max.-Head-Change                         Max.-Flux-Residual
  Residual-Control   Outer-Iter.   Inner-Iter.     Column Row Layer    Maximum-Head-Change  Column Row Layer    Maximum-Flux-Residual          L2-NORM 
          0                 1           2             4    7     1       0.1253091125E-01       4    7    1         0.6558210786E+00      0.1838628395E+01
          0                 2           2             4    7     1      -0.1205558938E+00       4    7    1        -0.6470990550E+01      0.1592601643E+02
          0                 3           2             4    7     1       0.7776219804E-01       4    7    1         0.4290569794E+01      0.1051012241E+02
          0                 4           2             4    7     1      -0.1981297332E-01       4    7    1        -0.1123657460E+01      0.2752322096E+01
          0                 5           2             4    7     1       0.2443000149E-03       4    7    1         0.1423874076E-01      0.3488767214E-01
          0                 6           1             4   13     1      -0.6303724189E-05       4   13    1        -0.4178612135E-03      0.6630366346E-03

    ------------------------------------------------
       NWT REQUIRED            6 OUTER ITERATIONS 
       AND A TOTAL OF         11 INNER ITERATIONS.
    ------------------------------------------------

 NO OUTPUT CONTROL FOR STRESS PERIOD   44   TIME STEP    3
 
 SOLVING FOR HEAD 
                                                   Max.-Head-Change                         Max.-Flux-Residual
  Residual-Control   Outer-Iter.   Inner-Iter.     Column Row Layer    Maximum-Head-Change  Column Row Layer    Maximum-Flux-Residual          L2-NORM 
          0                 1           2             5    6     1       0.1329820749E-01       5    8    1         0.7161639530E+00      0.1983723587E+01
          0                 2           2             4    7     1      -0.1205849966E+00       5    8    1        -0.6477219748E+01      0.1593996626E+02
          0                 3           2             4    7     1       0.7682152179E-01       5    6    1         0.4238921503E+01      0.1038366355E+02
          0                 4           2             4    7     1      -0.2003322084E-01       4    7    1        -0.1136147605E+01      0.2782945470E+01
          0                 5           2             4    7     1       0.2470157064E-03       4    7    1         0.1439701647E-01      0.3527558309E-01
          0                 6           1             4    7     1       0.3632916813E-05       5    8    1         0.2121338252E-03      0.5203518610E-03

    ------------------------------------------------
       NWT REQUIRED            6 OUTER ITERATIONS 
       AND A TOTAL OF         11 INNER ITERATIONS.
    ------------------------------------------------

 NO OUTPUT CONTROL FOR STRESS PERIOD   44   TIME STEP    4
 
 SOLVING FOR HEAD 
                                                   Max.-Head-Change                         Max.-Flux-Residual
  Residual-Control   Outer-Iter.   Inner-Iter.     Column Row Layer    Maximum-Head-Change  Column Row Layer    Maximum-Flux-Residual          L2-NORM 
          0                 1           2             5    8     1       0.1472409327E-01       5    8    1         0.7946597941E+00      0.2130697557E+01
          0                 2           2             4    7     1      -0.1206135185E+00       5    8    1        -0.6485075176E+01      0.1595325903E+02
          0                 3           2             4    7     1       0.7670451550E-01       5    6    1         0.4232898086E+01      0.1036847729E+02
          0                 4           2             4    7     1      -0.2001053501E-01       4    8    1        -0.1134862471E+01      0.2779818683E+01
          0                 5           2             4    7     1       0.2461878923E-03       4    7    1         0.1434875511E-01      0.3515766203E-01
          0                 6           1             4    7     1       0.3620742133E-05       5    8    1         0.2114261381E-03      0.5186064965E-03

    ------------------------------------------------
       NWT REQUIRED            6 OUTER ITERATIONS 
       AND A TOTAL OF         11 INNER ITERATIONS.
    ------------------------------------------------

 NO OUTPUT CONTROL FOR STRESS PERIOD   44   TIME STEP    5
 
 SOLVING FOR HEAD 
                                                   Max.-Head-Change                         Max.-Flux-Residual
  Residual-Control   Outer-Iter.   Inner-Iter.     Column Row Layer    Maximum-Head-Change  Column Row Layer    Maximum-Flux-Residual          L2-NORM 
          0                 1           2             5    8     1       0.1607477035E-01       5    8    1         0.8689536832E+00      0.2233823285E+01
          0                 2           2             4    7     1      -0.1206518526E+00       5    8    1        -0.6492918581E+01      0.1595681797E+02
          0                 3           2             4    7     1       0.6946803480E-01       5    6    1         0.3834019171E+01      0.9391049560E+01
          0                 4           2             4    7     1      -0.1968811307E-01       4    8    1        -0.1116584732E+01      0.2735055441E+01
          0                 5           2             4    7     1       0.2417910758E-03       4    7    1         0.1409249278E-01      0.3452967928E-01
          0                 6           1             4    7     1       0.3556077216E-05       5    8    1         0.2076507549E-03      0.5093373933E-03

    ------------------------------------------------
       NWT REQUIRED            6 OUTER ITERATIONS 
       AND A TOTAL OF         11 INNER ITERATIONS.
    ------------------------------------------------

 NO OUTPUT CONTROL FOR STRESS PERIOD   44   TIME STEP    6
 
 SOLVING FOR HEAD 
                                                   Max.-Head-Change                         Max.-Flux-Residual
  Residual-Control   Outer-Iter.   Inner-Iter.     Column Row Layer    Maximum-Head-Change  Column Row Layer    Maximum-Flux-Residual          L2-NORM 
          0                 1           2             5    8     1       0.1756155602E-01       5    8    1         0.9506505735E+00      0.2387516214E+01
          0                 2           2             4    7     1      -0.1132809424E+00       5    8    1        -0.6103497782E+01      0.1499933137E+02
          0                 3           2             4    7     1       0.6008407291E-01       5    8    1         0.3316695931E+01      0.8123541325E+01
          0                 4           2             4    7     1      -0.1927161407E-01       5    8    1        -0.1092983435E+01      0.2677227567E+01
          0                 5           2             4    7     1       0.2366596578E-03       4    7    1         0.1379342297E-01      0.3379660831E-01
          0                 6           1             4    7     1       0.3480608359E-05       5    8    1         0.2032435641E-03      0.4985062215E-03

    ------------------------------------------------
       NWT REQUIRED            6 OUTER ITERATIONS 
       AND A TOTAL OF         11 INNER ITERATIONS.
    ------------------------------------------------

 NO OUTPUT CONTROL FOR STRESS PERIOD   44   TIME STEP    7
 
 SOLVING FOR HEAD 
                                                   Max.-Head-Change                         Max.-Flux-Residual
  Residual-Control   Outer-Iter.   Inner-Iter.     Column Row Layer    Maximum-Head-Change  Column Row Layer    Maximum-Flux-Residual          L2-NORM 
          0                 1           2             5    8     1       0.1901613384E-01       5    8    1         0.1030505295E+01      0.2550477035E+01
          0                 2           2             4    7     1      -0.1116429995E+00       5    8    1        -0.6021450834E+01      0.1479396841E+02
          0                 3           2             4    7     1       0.5829652548E-01       5    8    1         0.3218481108E+01      0.7882572390E+01
          0                 4           2             4    7     1      -0.1915741984E-01       5    8    1        -0.1086524530E+01      0.2661387984E+01
          0                 5           2             4    7     1       0.2352516214E-03       4    7    1         0.1371134861E-01      0.3359564632E-01
          0                 6           1             4    7     1       0.3459900190E-05       5    8    1         0.2020363554E-03      0.4955365099E-03

    ------------------------------------------------
       NWT REQUIRED            6 OUTER ITERATIONS 
       AND A TOTAL OF         11 INNER ITERATIONS.
    ------------------------------------------------

 NO OUTPUT CONTROL FOR STRESS PERIOD   44   TIME STEP    8
 
 SOLVING FOR HEAD 
                                                   Max.-Head-Change                         Max.-Flux-Residual
  Residual-Control   Outer-Iter.   Inner-Iter.     Column Row Layer    Maximum-Head-Change  Column Row Layer    Maximum-Flux-Residual          L2-NORM 
          0                 1           2             5    8     1       0.2039402860E-01       5    8    1         0.1106084838E+01      0.2708624441E+01
          0                 2           2             4    7     1      -0.1116843548E+00       5    8    1        -0.6029008948E+01      0.1480754809E+02
          0                 3           2             4    7     1       0.5825516108E-01       5    8    1         0.3216573071E+01      0.7877520170E+01
          0                 4           2             4    7     1      -0.1911277294E-01       5    8    1        -0.1084007307E+01      0.2655206155E+01
          0                 5           2             4    7     1       0.2346929357E-03       4    7    1         0.1367877331E-01      0.3351605084E-01
          0                 6           1             4    7     1       0.3451683706E-05       5    8    1         0.2015588570E-03      0.4943897990E-03

    ------------------------------------------------
       NWT REQUIRED            6 OUTER ITERATIONS 
       AND A TOTAL OF         11 INNER ITERATIONS.
    ------------------------------------------------

 NO OUTPUT CONTROL FOR STRESS PERIOD   44   TIME STEP    9
 
 SOLVING FOR HEAD 
                                                   Max.-Head-Change                         Max.-Flux-Residual
  Residual-Control   Outer-Iter.   Inner-Iter.     Column Row Layer    Maximum-Head-Change  Column Row Layer    Maximum-Flux-Residual          L2-NORM 
          0                 1           2             5    8     1       0.2170027666E-01       5    8    1         0.1177673052E+01      0.2861656314E+01
          0                 2           2             4    7     1      -0.1117274350E+00       5    8    1        -0.6036166975E+01      0.1482066128E+02
          0                 3           2             4    7     1       0.5821394218E-01       5    8    1         0.3214638264E+01      0.7872440476E+01
          0                 4           2             4    7     1      -0.1906819976E-01       5    8    1        -0.1081492785E+01      0.2649032527E+01
          0                 5           2             4    7     1       0.2341597007E-03       4    7    1         0.1364768125E-01      0.3344006504E-01
          0                 6           1             4    7     1       0.3443841132E-05       5    8    1         0.2011029785E-03      0.4932402621E-03

    ------------------------------------------------
       NWT REQUIRED            6 OUTER ITERATIONS 
       AND A TOTAL OF         11 INNER ITERATIONS.
    ------------------------------------------------

 NO OUTPUT CONTROL FOR STRESS PERIOD   44   TIME STEP   10
 
 SOLVING FOR HEAD 
                                                   Max.-Head-Change                         Max.-Flux-Residual
  Residual-Control   Outer-Iter.   Inner-Iter.     Column Row Layer    Maximum-Head-Change  Column Row Layer    Maximum-Flux-Residual          L2-NORM 
          0                 1           2             5    8     1       0.2293980982E-01       5    8    1         0.1245546809E+01      0.3009446860E+01
          0                 2           2             4    7     1      -0.1117720759E+00       5    8    1        -0.6042954510E+01      0.1483333350E+02
          0                 3           2             4    7     1       0.5817293949E-01       5    8    1         0.3212683301E+01      0.7867346075E+01
          0                 4           2             4    7     1      -0.1902371565E-01       5    8    1        -0.1078981949E+01      0.2642869378E+01
          0                 5           2             4    7     1       0.2336193833E-03       4    7    1         0.1361617616E-01      0.3336304614E-01
          0                 6           1             4    7     1       0.3435894383E-05       5    8    1         0.2006408042E-03      0.4921000052E-03

    ------------------------------------------------
       NWT REQUIRED            6 OUTER ITERATIONS 
       AND A TOTAL OF         11 INNER ITERATIONS.
    ------------------------------------------------

 NO OUTPUT CONTROL FOR STRESS PERIOD   44   TIME STEP   11
 
 SOLVING FOR HEAD 
                                                   Max.-Head-Change                         Max.-Flux-Residual
  Residual-Control   Outer-Iter.   Inner-Iter.     Column Row Layer    Maximum-Head-Change  Column Row Layer    Maximum-Flux-Residual          L2-NORM 
          0                 1           2             5    8     1       0.2411688924E-01       5    8    1         0.1309946034E+01      0.3152009327E+01
          0                 2           2             4    7     1      -0.1118180993E+00       5    8    1        -0.6049394590E+01      0.1484558313E+02
          0                 3           2             4    7     1       0.5813210180E-01       5    8    1         0.3210707663E+01      0.7862232925E+01
          0                 4           2             4    7     1      -0.1897929749E-01       5    8    1        -0.1076473589E+01      0.2636713627E+01
          0                 5           2             4    7     1       0.2330798793E-03       4    7    1         0.1358471831E-01      0.3328612827E-01
          0                 6           1             4    7     1       0.3427959732E-05       5    8    1         0.2001790995E-03      0.4909647024E-03

    ------------------------------------------------
       NWT REQUIRED            6 OUTER ITERATIONS 
       AND A TOTAL OF         11 INNER ITERATIONS.
    ------------------------------------------------

 NO OUTPUT CONTROL FOR STRESS PERIOD   44   TIME STEP   12
 
 SOLVING FOR HEAD 
                                                   Max.-Head-Change                         Max.-Flux-Residual
  Residual-Control   Outer-Iter.   Inner-Iter.     Column Row Layer    Maximum-Head-Change  Column Row Layer    Maximum-Flux-Residual          L2-NORM 
          0                 1           2             5    8     1       0.2523572954E-01       5    8    1         0.1371107390E+01      0.3289440791E+01
          0                 2           2             4    7     1      -0.1118653418E+00       5    8    1        -0.6055510881E+01      0.1485743043E+02
          0                 3           2             4    7     1       0.5809140919E-01       5    8    1         0.3208712543E+01      0.7857101161E+01
          0                 4           2             4    7     1      -0.1893496125E-01       5    8    1        -0.1073968707E+01      0.2630567612E+01
          0                 5           2             4    7     1       0.2325413847E-03       4    7    1         0.1355331916E-01      0.3320933702E-01
          0                 6           1             4    7     1       0.3420040202E-05       5    8    1         0.1997180843E-03      0.4898311849E-03

    ------------------------------------------------
       NWT REQUIRED            6 OUTER ITERATIONS 
       AND A TOTAL OF         11 INNER ITERATIONS.
    ------------------------------------------------

 NO OUTPUT CONTROL FOR STRESS PERIOD   44   TIME STEP   13
 
 SOLVING FOR HEAD 
                                                   Max.-Head-Change                         Max.-Flux-Residual
  Residual-Control   Outer-Iter.   Inner-Iter.     Column Row Layer    Maximum-Head-Change  Column Row Layer    Maximum-Flux-Residual          L2-NORM 
          0                 1           2             5    8     1       0.2629994568E-01       5    8    1         0.1429233668E+01      0.3421863934E+01
          0                 2           2             4    7     1      -0.1119136513E+00       5    8    1        -0.6061323661E+01      0.1486889332E+02
          0                 3           2             4    7     1       0.5805086841E-01       5    8    1         0.3206700324E+01      0.7851954317E+01
          0                 4           2             4    7     1      -0.1889069873E-01       5    8    1        -0.1071466927E+01      0.2624430314E+01
          0                 5           2             4    7     1       0.2320201608E-03       4    7    1         0.1352292656E-01      0.3313499686E-01
          0                 6           1             4    7     1       0.3412373941E-05       5    8    1         0.1992717246E-03      0.4887325028E-03

    ------------------------------------------------
       NWT REQUIRED            6 OUTER ITERATIONS 
       AND A TOTAL OF         11 INNER ITERATIONS.
    ------------------------------------------------

 NO OUTPUT CONTROL FOR STRESS PERIOD   44   TIME STEP   14
 
 SOLVING FOR HEAD 
                                                   Max.-Head-Change                         Max.-Flux-Residual
  Residual-Control   Outer-Iter.   Inner-Iter.     Column Row Layer    Maximum-Head-Change  Column Row Layer    Maximum-Flux-Residual          L2-NORM 
          0                 1           2             5    8     1       0.2731315244E-01       5    8    1         0.1484527967E+01      0.3549450112E+01
          0                 2           2             4    7     1      -0.1119629166E+00       5    8    1        -0.6066854194E+01      0.1487999146E+02
          0                 3           2             4    7     1       0.5801049335E-01       5    8    1         0.3204673698E+01      0.7846796612E+01
          0                 4           2             4    7     1      -0.1884649783E-01       5    8    1        -0.1068967643E+01      0.2618300151E+01
          0                 5           2             4    7     1       0.2314424320E-03       4    7    1         0.1348924026E-01      0.3305257575E-01
          0                 6           1             4    7     1       0.3403877194E-05       5    8    1         0.1987767198E-03      0.4875172154E-03

    ------------------------------------------------
       NWT REQUIRED            6 OUTER ITERATIONS 
       AND A TOTAL OF         11 INNER ITERATIONS.
    ------------------------------------------------

 NO OUTPUT CONTROL FOR STRESS PERIOD   44   TIME STEP   15
 
 SOLVING FOR HEAD 
                                                   Max.-Head-Change                         Max.-Flux-Residual
  Residual-Control   Outer-Iter.   Inner-Iter.     Column Row Layer    Maximum-Head-Change  Column Row Layer    Maximum-Flux-Residual          L2-NORM 
          0                 1           2             5    8     1       0.2827856693E-01       5    8    1         0.1537169918E+01      0.3672373570E+01
          0                 2           2             4    7     1      -0.1120129297E+00       5    8    1        -0.6072117105E+01      0.1489073304E+02
          0                 3           2             4    7     1       0.5797015303E-01       5    8    1         0.3202627259E+01      0.7841612733E+01
          0                 4           2             4    7     1      -0.1880235747E-01       5    8    1        -0.1066470873E+01      0.2612177082E+01
          0                 5           2             4    7     1       0.2309472561E-03       4    7    1         0.1346036580E-01      0.3298191966E-01
          0                 6           1             4    7     1       0.3372052672E-05       5    8    1         0.1969218542E-03      0.4829763133E-03

    ------------------------------------------------
       NWT REQUIRED            6 OUTER ITERATIONS 
       AND A TOTAL OF         11 INNER ITERATIONS.
    ------------------------------------------------

 NO OUTPUT CONTROL FOR STRESS PERIOD   44   TIME STEP   16
 
 SOLVING FOR HEAD 
                                                   Max.-Head-Change                         Max.-Flux-Residual
  Residual-Control   Outer-Iter.   Inner-Iter.     Column Row Layer    Maximum-Head-Change  Column Row Layer    Maximum-Flux-Residual          L2-NORM 
          0                 1           2             5    8     1       0.2919928596E-01       5    8    1         0.1587334082E+01      0.3790833490E+01
          0                 2           2             4    7     1      -0.1120636606E+00       5    8    1        -0.6077134140E+01      0.1490114488E+02
          0                 3           2             4    7     1       0.5792995295E-01       5    8    1         0.3200989387E+01      0.7836593680E+01
          0                 4           2             4    7     1      -0.1875826886E-01       5    6    1        -0.1063971750E+01      0.2604879975E+01
          0                 5           2             4    7     1       0.2304118131E-03       4    7    1         0.1342916021E-01      0.3289213305E-01
          0                 6           1             4    7     1       0.3388719864E-05       5    6    1         0.1978836544E-03      0.4851773067E-03

    ------------------------------------------------
       NWT REQUIRED            6 OUTER ITERATIONS 
       AND A TOTAL OF         11 INNER ITERATIONS.
    ------------------------------------------------

 NO OUTPUT CONTROL FOR STRESS PERIOD   44   TIME STEP   17
 
 SOLVING FOR HEAD 
                                                   Max.-Head-Change                         Max.-Flux-Residual
  Residual-Control   Outer-Iter.   Inner-Iter.     Column Row Layer    Maximum-Head-Change  Column Row Layer    Maximum-Flux-Residual          L2-NORM 
          0                 1           2             5    8     1       0.3007790802E-01       5    8    1         0.1635165278E+01      0.3905012276E+01
          0                 2           2             4    7     1      -0.1121149679E+00       5    8    1        -0.6081918352E+01      0.1491123747E+02
          0                 3           2             4    7     1       0.5788994136E-01       5    8    1         0.3200878670E+01      0.7832199239E+01
          0                 4           2             4    7     1      -0.1871430711E-01       5    6    1        -0.1061482717E+01      0.2599600175E+01
          0                 5           2             4    7     1       0.2298623076E-03       5    8    1         0.1348166780E-01      0.3286533743E-01
          0                 6           1             4    7     1       0.3380638360E-05       5    8    1         0.1988316722E-03      0.4847591754E-03

    ------------------------------------------------
       NWT REQUIRED            6 OUTER ITERATIONS 
       AND A TOTAL OF         11 INNER ITERATIONS.
    ------------------------------------------------

 NO OUTPUT CONTROL FOR STRESS PERIOD   44   TIME STEP   18
 
 SOLVING FOR HEAD 
                                                   Max.-Head-Change                         Max.-Flux-Residual
  Residual-Control   Outer-Iter.   Inner-Iter.     Column Row Layer    Maximum-Head-Change  Column Row Layer    Maximum-Flux-Residual          L2-NORM 
          0                 1           2             5    8     1       0.3087962815E-01       5    8    1         0.1680909476E+01      0.4015157913E+01
          0                 2           2             4    7     1      -0.1121666869E+00       5    6    1        -0.6085577000E+01      0.1492006993E+02
          0                 3           2             4    7     1       0.5784998541E-01       5    8    1         0.3200532626E+01      0.7827700122E+01
          0                 4           2             4    7     1      -0.1867040019E-01       5    8    1        -0.1059163525E+01      0.2593929808E+01
          0                 5           2             4    7     1       0.2293285285E-03       4    7    1         0.1336597538E-01      0.3275219302E-01
          0                 6           1             4    7     1       0.3372787496E-05       5    8    1         0.1970254827E-03      0.4831188144E-03

    ------------------------------------------------
       NWT REQUIRED            6 OUTER ITERATIONS 
       AND A TOTAL OF         11 INNER ITERATIONS.
    ------------------------------------------------

 NO OUTPUT CONTROL FOR STRESS PERIOD   44   TIME STEP   19
 
 SOLVING FOR HEAD 
                                                   Max.-Head-Change                         Max.-Flux-Residual
  Residual-Control   Outer-Iter.   Inner-Iter.     Column Row Layer    Maximum-Head-Change  Column Row Layer    Maximum-Flux-Residual          L2-NORM 
          0                 1           2             5    8     1       0.3171183552E-01       5    8    1         0.1726256987E+01      0.4122339888E+01
          0                 2           2             4    7     1      -0.1122187874E+00       5    8    1        -0.6090522247E+01      0.1493037965E+02
          0                 3           2             4    7     1       0.5781006442E-01       5    8    1         0.3200417585E+01      0.7823283968E+01
          0                 4           2             4    7     1      -0.1862649543E-01       5    8    1        -0.1056759033E+01      0.2587868662E+01
          0                 5           2             4    7     1       0.2287953532E-03       4    7    1         0.1333488518E-01      0.3267643188E-01
          0                 6           1             4    7     1       0.3364946266E-05       5    8    1         0.1965817073E-03      0.4819896679E-03

    ------------------------------------------------
       NWT REQUIRED            6 OUTER ITERATIONS 
       AND A TOTAL OF         11 INNER ITERATIONS.
    ------------------------------------------------

 NO OUTPUT CONTROL FOR STRESS PERIOD   44   TIME STEP   20
 
 SOLVING FOR HEAD 
                                                   Max.-Head-Change                         Max.-Flux-Residual
  Residual-Control   Outer-Iter.   Inner-Iter.     Column Row Layer    Maximum-Head-Change  Column Row Layer    Maximum-Flux-Residual          L2-NORM 
          0                 1           2             5    8     1       0.3250624261E-01       5    8    1         0.1769507575E+01      0.4225732137E+01
          0                 2           2             4    7     1      -0.1122711382E+00       5    8    1        -0.6095349371E+01      0.1493986866E+02
          0                 3           2             4    7     1       0.5777027403E-01       5    8    1         0.3192268718E+01      0.7815579270E+01
          0                 4           2             4    7     1      -0.1858274736E-01       5    6    1        -0.1054032646E+01      0.2581693175E+01
          0                 5           2             4    7     1       0.2282722906E-03       4    7    1         0.1330438624E-01      0.3260066128E-01
          0                 6           1             4    7     1       0.3357253457E-05       5    8    1         0.1960909342E-03      0.4808762868E-03

    ------------------------------------------------
       NWT REQUIRED            6 OUTER ITERATIONS 
       AND A TOTAL OF         11 INNER ITERATIONS.
    ------------------------------------------------

 NO OUTPUT CONTROL FOR STRESS PERIOD   44   TIME STEP   21
 
 SOLVING FOR HEAD 
                                                   Max.-Head-Change                         Max.-Flux-Residual
  Residual-Control   Outer-Iter.   Inner-Iter.     Column Row Layer    Maximum-Head-Change  Column Row Layer    Maximum-Flux-Residual          L2-NORM 
          0                 1           2             5    8     1       0.3326515506E-01       5    8    1         0.1810790336E+01      0.4325492985E+01
          0                 2           2             4    7     1      -0.1123237216E+00       5    8    1        -0.6099477603E+01      0.1494887493E+02
          0                 3           2             4    7     1       0.5773055213E-01       5    8    1         0.3190166719E+01      0.7810338901E+01
          0                 4           2             4    7     1      -0.1853902735E-01       5    6    1        -0.1051555642E+01      0.2575622646E+01
          0                 5           2             4    7     1       0.2277413930E-03       4    7    1         0.1327342931E-01      0.3252485750E-01
          0                 6           1             4    7     1       0.3349445608E-05       5    8    1         0.1956352883E-03      0.4797536624E-03

    ------------------------------------------------
       NWT REQUIRED            6 OUTER ITERATIONS 
       AND A TOTAL OF         11 INNER ITERATIONS.
    ------------------------------------------------

 NO OUTPUT CONTROL FOR STRESS PERIOD   44   TIME STEP   22
 
 SOLVING FOR HEAD 
                                                   Max.-Head-Change                         Max.-Flux-Residual
  Residual-Control   Outer-Iter.   Inner-Iter.     Column Row Layer    Maximum-Head-Change  Column Row Layer    Maximum-Flux-Residual          L2-NORM 
          0                 1           2             5    8     1       0.3399070104E-01       5    8    1         0.1850224816E+01      0.4421812994E+01
          0                 2           2             4    7     1      -0.1123764065E+00       5    8    1        -0.6103421006E+01      0.1495761960E+02
          0                 3           2             4    7     1       0.5769090236E-01       5    8    1         0.3188055272E+01      0.7805089706E+01
          0                 4           2             4    7     1      -0.1849536492E-01       5    6    1        -0.1049081396E+01      0.2569559335E+01
          0                 5           2             4    7     1       0.2271866640E-03       4    7    1         0.1324108332E-01      0.3244563222E-01
          0                 6           1             4    7     1       0.3341287037E-05       5    8    1         0.1951590982E-03      0.4785829459E-03

    ------------------------------------------------
       NWT REQUIRED            6 OUTER ITERATIONS 
       AND A TOTAL OF         11 INNER ITERATIONS.
    ------------------------------------------------

 NO OUTPUT CONTROL FOR STRESS PERIOD   44   TIME STEP   23
 
 SOLVING FOR HEAD 
                                                   Max.-Head-Change                         Max.-Flux-Residual
  Residual-Control   Outer-Iter.   Inner-Iter.     Column Row Layer    Maximum-Head-Change  Column Row Layer    Maximum-Flux-Residual          L2-NORM 
          0                 1           2             5    8     1       0.3468485790E-01       5    8    1         0.1887921380E+01      0.4514846182E+01
          0                 2           2             4    7     1      -0.1124291179E+00       5    8    1        -0.6107189665E+01      0.1496611103E+02
          0                 3           2             4    7     1       0.5765127201E-01       5    8    1         0.3185932464E+01      0.7799825747E+01
          0                 4           2             4    7     1      -0.1845175376E-01       5    6    1        -0.1046609586E+01      0.2563502424E+01
          0                 5           2             4    7     1       0.2266816512E-03       4    7    1         0.1321163526E-01      0.3237350355E-01
          0                 6           1             4    7     1       0.3333859482E-05       5    8    1         0.1947254950E-03      0.4775203417E-03

    ------------------------------------------------
       NWT REQUIRED            6 OUTER ITERATIONS 
       AND A TOTAL OF         11 INNER ITERATIONS.
    ------------------------------------------------

 NO OUTPUT CONTROL FOR STRESS PERIOD   44   TIME STEP   24
 
 SOLVING FOR HEAD 
                                                   Max.-Head-Change                         Max.-Flux-Residual
  Residual-Control   Outer-Iter.   Inner-Iter.     Column Row Layer    Maximum-Head-Change  Column Row Layer    Maximum-Flux-Residual          L2-NORM 
          0                 1           2             5    8     1       0.3534973682E-01       5    8    1         0.1923998202E+01      0.4604762675E+01
          0                 2           2             4    7     1      -0.1124818570E+00       5    8    1        -0.6110798258E+01      0.1497436752E+02
          0                 3           2             4    7     1       0.5761180801E-01       5    8    1         0.3183807436E+01      0.7794568149E+01
          0                 4           2             4    7     1      -0.1840825856E-01       5    6    1        -0.1044143915E+01      0.2557460949E+01
          0                 5           2             4    7     1       0.2261535256E-03       4    7    1         0.1318084007E-01      0.3229806838E-01
          0                 6           1             4    7     1       0.3301549930E-05       5    8    1         0.1928414597E-03      0.4729176231E-03

    ------------------------------------------------
       NWT REQUIRED            6 OUTER ITERATIONS 
       AND A TOTAL OF         11 INNER ITERATIONS.
    ------------------------------------------------

 NO OUTPUT CONTROL FOR STRESS PERIOD   44   TIME STEP   25
 
 SOLVING FOR HEAD 
                                                   Max.-Head-Change                         Max.-Flux-Residual
  Residual-Control   Outer-Iter.   Inner-Iter.     Column Row Layer    Maximum-Head-Change  Column Row Layer    Maximum-Flux-Residual          L2-NORM 
          0                 1           2             5    8     1       0.3598715452E-01       5    8    1         0.1958556994E+01      0.4691701575E+01
          0                 2           2             4    7     1      -0.1125344653E+00       5    8    1        -0.6114253141E+01      0.1498238895E+02
          0                 3           2             4    7     1       0.5757230072E-01       5    8    1         0.3181669670E+01      0.7789289985E+01
          0                 4           2             4    7     1      -0.1836476163E-01       5    6    1        -0.1041677746E+01      0.2551418629E+01
          0                 5           2             4    7     1       0.2256008368E-03       4    7    1         0.1314861322E-01      0.3221912432E-01
          0                 6           1             4    7     1       0.3317964079E-05       5    8    1         0.1937973159E-03      0.4752417039E-03

    ------------------------------------------------
       NWT REQUIRED            6 OUTER ITERATIONS 
       AND A TOTAL OF         11 INNER ITERATIONS.
    ------------------------------------------------

 NO OUTPUT CONTROL FOR STRESS PERIOD   44   TIME STEP   26
 
 SOLVING FOR HEAD 
                                                   Max.-Head-Change                         Max.-Flux-Residual
  Residual-Control   Outer-Iter.   Inner-Iter.     Column Row Layer    Maximum-Head-Change  Column Row Layer    Maximum-Flux-Residual          L2-NORM 
          0                 1           2             5    8     1       0.3659836938E-01       5    8    1         0.1991668239E+01      0.4775796469E+01
          0                 2           2             4    7     1      -0.1125869550E+00       5    8    1        -0.6117564224E+01      0.1499019138E+02
          0                 3           2             4    7     1       0.5753289349E-01       5    8    1         0.3179527733E+01      0.7784011700E+01
          0                 4           2             4    7     1      -0.1832135695E-01       5    6    1        -0.1039216444E+01      0.2545388553E+01
          0                 5           2             4    7     1       0.2250820087E-03       4    7    1         0.1311836012E-01      0.3214500089E-01
          0                 6           1             4    7     1       0.3310333439E-05       5    8    1         0.1933516517E-03      0.4741524379E-03

    ------------------------------------------------
       NWT REQUIRED            6 OUTER ITERATIONS 
       AND A TOTAL OF         11 INNER ITERATIONS.
    ------------------------------------------------

 NO OUTPUT CONTROL FOR STRESS PERIOD   44   TIME STEP   27
 
 SOLVING FOR HEAD 
                                                   Max.-Head-Change                         Max.-Flux-Residual
  Residual-Control   Outer-Iter.   Inner-Iter.     Column Row Layer    Maximum-Head-Change  Column Row Layer    Maximum-Flux-Residual          L2-NORM 
          0                 1           2             5    8     1       0.3718525761E-01       5    8    1         0.2023436563E+01      0.4857076823E+01
          0                 2           2             4    7     1      -0.1126392882E+00       5    8    1        -0.6120741969E+01      0.1499773150E+02
          0                 3           2             4    7     1       0.5745932525E-01       5    8    1         0.3175492179E+01      0.7774103874E+01
          0                 4           2             4    7     1      -0.1827670642E-01       5    6    1        -0.1036684171E+01      0.2539184923E+01
          0                 5           2             4    7     1       0.2245478184E-03       4    7    1         0.1308721184E-01      0.3206868089E-01
          0                 6           1             4    7     1       0.3302476975E-05       5    8    1         0.1928927168E-03      0.4730214802E-03

    ------------------------------------------------
       NWT REQUIRED            6 OUTER ITERATIONS 
       AND A TOTAL OF         11 INNER ITERATIONS.
    ------------------------------------------------

 NO OUTPUT CONTROL FOR STRESS PERIOD   44   TIME STEP   28
 
 SOLVING FOR HEAD 
                                                   Max.-Head-Change                         Max.-Flux-Residual
  Residual-Control   Outer-Iter.   Inner-Iter.     Column Row Layer    Maximum-Head-Change  Column Row Layer    Maximum-Flux-Residual          L2-NORM 
          0                 1           2             5    8     1       0.3774447648E-01       5    8    1         0.2053980475E+01      0.4838967216E+01
          0                 2           2             4    7     1      -0.1126561486E+00       5    8    1        -0.6121905613E+01      0.1495397203E+02
          0                 3           2             4    7     1       0.1997578489E-01       5    8    1         0.1107388864E+01      0.2709173953E+01
          0                 4           2             4    7     1      -0.1674421294E-01       5    8    1        -0.9498007683E+00      0.2326332277E+01
          0                 5           2             4    7     1       0.2056518324E-03       4    7    1         0.1198596754E-01      0.2936865466E-01
          0                 6           1             4    7     1       0.3024569491E-05       5    8    1         0.1766504276E-03      0.4331897909E-03

    ------------------------------------------------
       NWT REQUIRED            6 OUTER ITERATIONS 
       AND A TOTAL OF         11 INNER ITERATIONS.
    ------------------------------------------------

 NO OUTPUT CONTROL FOR STRESS PERIOD   44   TIME STEP   29
 
 SOLVING FOR HEAD 
                                                   Max.-Head-Change                         Max.-Flux-Residual
  Residual-Control   Outer-Iter.   Inner-Iter.     Column Row Layer    Maximum-Head-Change  Column Row Layer    Maximum-Flux-Residual          L2-NORM 
          0                 1           2             5    8     1       0.3939804614E-01       5    8    1         0.2144612337E+01      0.5036420955E+01
          0                 2           2             4    7     1      -0.1001225037E+00       5    8    1        -0.5454372522E+01      0.1331767942E+02
          0                 3           2             4    7     1      -0.3916817044E+00       4    7    1        -0.2102283573E+02      0.5148698498E+02
          0                 4           2             4    7     1       0.2667494180E-01       4    7    1         0.1471773588E+01      0.3604404258E+01
          0                 5           2             4    7     1      -0.1061676719E-02       5    7    1        -0.6021197568E-01      0.1474637433E+00
          0                 6           1             4    7     1       0.1310064655E-04       5    7    1         0.7637022084E-03      0.1876711452E-02

    ------------------------------------------------
       NWT REQUIRED            6 OUTER ITERATIONS 
       AND A TOTAL OF         11 INNER ITERATIONS.
    ------------------------------------------------

 NO OUTPUT CONTROL FOR STRESS PERIOD   44   TIME STEP   30



 STREAM LISTING     PERIOD     44   STEP       30

 LAYER ROW COL. STREAM  RCH.  FLOW INTO     FLOW TO   FLOW OUT OF   OVRLND.     DIRECT     STREAM       STREAM     STREAM     STREAM   STREAMBED  STREAMBED
                SEG.NO.  NO.  STRM. RCH.    AQUIFER    STRM. RCH.    RUNOFF     PRECIP       ET          HEAD       DEPTH      WIDTH   CONDCTNC.   GRADIENT

   1    1    1     1     1    2.7749E+01  2.5751E-01   2.7492E+01  0.000E+00  0.000E+00  0.000E+00  1.09427E+03  1.218E+00  1.357E+01  6.105E-02  1.406E+00
   1    2    2     1     2    2.7492E+01  3.9832E-01   2.7093E+01  0.000E+00  0.000E+00  0.000E+00  1.08927E+03  1.213E+00  1.351E+01  9.454E-02  1.404E+00
   1    3    3     1     3    2.7093E+01  3.3923E-01   2.6754E+01  0.000E+00  0.000E+00  0.000E+00  1.08363E+03  1.208E+00  1.344E+01  8.062E-02  1.403E+00
   1    3    4     1     4    2.6754E+01  3.1200E-01   2.6442E+01  0.000E+00  0.000E+00  0.000E+00  1.07861E+03  1.203E+00  1.337E+01  7.422E-02  1.401E+00
   1    4    5     2     1    2.4442E+01  3.2655E-01   2.4116E+01  0.000E+00  0.000E+00  0.000E+00  1.07312E+03  1.187E+00  1.200E+01  7.800E-02  1.396E+00
   1    5    6     2     2    2.4116E+01  2.5068E-01   2.3865E+01  0.000E+00  0.000E+00  0.000E+00  1.06769E+03  1.178E+00  1.200E+01  6.000E-02  1.393E+00
   1    6    6     2     3    2.3865E+01  2.5024E-01   2.3615E+01  0.000E+00  0.000E+00  0.000E+00  1.06296E+03  1.171E+00  1.200E+01  6.000E-02  1.390E+00
   1    7    6     2     4    2.3615E+01  2.4979E-01   2.3365E+01  0.000E+00  0.000E+00  0.000E+00  1.05824E+03  1.163E+00  1.200E+01  6.000E-02  1.388E+00
   1    8    6     2     5    2.3365E+01  2.4935E-01   2.3115E+01  0.000E+00  0.000E+00  0.000E+00  1.05351E+03  1.156E+00  1.200E+01  6.000E-02  1.385E+00
   1    3    5     3     1    2.0000E+00  2.8252E-01   1.7175E+00  0.000E+00  0.000E+00  0.000E+00  1.07555E+03  1.909E+00  9.636E+00  7.227E-02  1.955E+00
   1    3    6     3     2    1.7175E+00  2.4905E-01   1.4684E+00  0.000E+00  0.000E+00  0.000E+00  1.07264E+03  1.727E+00  8.909E+00  6.682E-02  1.864E+00
   1    3    7     3     3    1.4684E+00  1.9718E-01   1.2712E+00  0.000E+00  0.000E+00  0.000E+00  1.06987E+03  1.555E+00  8.218E+00  5.547E-02  1.777E+00
   1    4    8     3     4    1.2712E+00  2.2567E-01   1.0456E+00  0.000E+00  0.000E+00  0.000E+00  1.06682E+03  1.364E+00  7.455E+00  6.709E-02  1.682E+00
   1    5    8     3     5    1.0456E+00  1.5790E-01   8.8768E-01  0.000E+00  0.000E+00  0.000E+00  1.06362E+03  1.164E+00  6.655E+00  4.991E-02  1.582E+00
   1    6    8     3     6    8.8768E-01  5.5980E-02   8.3170E-01  0.000E+00  0.000E+00  0.000E+00  1.06158E+03  1.036E+00  6.145E+00  1.844E-02  1.518E+00
   1    5   10     4     1    1.0000E+01  9.0919E-02   9.9091E+00  0.000E+00  0.000E+00  0.000E+00  1.07836E+03  6.368E-01  1.000E+01  2.500E-02  1.212E+00
   1    5    9     4     2    9.9091E+00  1.8158E-01   9.7275E+00  0.000E+00  0.000E+00  0.000E+00  1.07154E+03  6.315E-01  1.000E+01  5.000E-02  1.211E+00
   1    6    8     4     3    9.7275E+00  1.2689E-01   9.6006E+00  0.000E+00  0.000E+00  0.000E+00  1.06381E+03  6.256E-01  1.000E+01  3.500E-02  1.209E+00
   1    6    8     5     1    1.0432E+01  2.2686E-01   1.0205E+01  0.000E+00  0.000E+00  0.000E+00  1.05868E+03  6.790E-01  1.542E+01  6.166E-02  1.226E+00
   1    7    7     5     2    1.0205E+01  2.7894E-01   9.9265E+00  0.000E+00  0.000E+00  0.000E+00  1.05417E+03  6.732E-01  1.519E+01  7.594E-02  1.224E+00
   1    8    7     5     3    9.9265E+00  1.9221E-01   9.7343E+00  0.000E+00  0.000E+00  0.000E+00  1.04992E+03  6.676E-01  1.497E+01  5.241E-02  1.223E+00
   1    8    6     5     4    9.7343E+00  1.3577E-01   9.5985E+00  0.000E+00  0.000E+00  0.000E+00  1.04691E+03  6.637E-01  1.482E+01  3.706E-02  1.221E+00
   1    9    6     6     1    9.5985E+00  2.2097E-01   9.3776E+00  0.000E+00  0.000E+00  0.000E+00  1.04341E+03  6.828E-01  1.200E+01  6.000E-02  1.228E+00
   1   10    7     6     2    9.3776E+00  2.2039E-01   9.1572E+00  0.000E+00  0.000E+00  0.000E+00  1.03885E+03  6.732E-01  1.200E+01  6.000E-02  1.224E+00
   1   11    7     6     3    9.1572E+00  2.1981E-01   8.9374E+00  0.000E+00  0.000E+00  0.000E+00  1.03430E+03  6.636E-01  1.200E+01  6.000E-02  1.221E+00
   1   12    7     6     4    8.9374E+00  2.1923E-01   8.7181E+00  0.000E+00  0.000E+00  0.000E+00  1.02974E+03  6.539E-01  1.200E+01  6.000E-02  1.218E+00
   1   13    7     6     5    8.7181E+00 -8.9553E-02   8.8077E+00  0.000E+00  0.000E+00  0.000E+00  1.02656E+03  6.510E-01  1.200E+01  2.400E-01 -1.244E-01
   1   14    9     7     1    1.5000E+02  1.3525E+00   1.4865E+02  0.000E+00  0.000E+00  0.000E+00  1.03987E+03  2.288E+00  5.529E+01  5.593E-01  8.060E-01
   1   13    8     7     2    1.4865E+02  1.8783E+00   1.4677E+02  0.000E+00  0.000E+00  0.000E+00  1.03478E+03  2.279E+00  5.526E+01  6.148E-01  1.018E+00
   1   13    7     7     3    1.4677E+02  1.5391E+00   1.4523E+02  0.000E+00  0.000E+00  0.000E+00  1.02969E+03  2.270E+00  5.521E+01  5.584E-01  9.187E-01
   1   13    6     8     1    1.5404E+02  8.9305E-01   1.5314E+02  0.000E+00  0.000E+00  0.000E+00  1.02472E+03  2.842E+00  4.121E+01  4.199E-01  7.089E-01
   1   13    5     8     2    1.5314E+02  1.6234E-01   1.5298E+02  0.000E+00  0.000E+00  0.000E+00  1.01846E+03  2.838E+00  4.116E+01  4.194E-01  1.290E-01
   1   13    4     8     3    1.5298E+02 -2.4594E+00   1.5544E+02  0.000E+00  0.000E+00  0.000E+00  1.01222E+03  2.846E+00  4.127E+01  4.206E+00 -1.949E-01
   1   13    3     8     4    1.5544E+02 -3.6649E+00   1.5911E+02  0.000E+00  0.000E+00  0.000E+00  1.00599E+03  2.867E+00  4.158E+01  4.237E+00 -2.883E-01
   1   13    2     8     5    1.5911E+02 -2.6202E+00   1.6173E+02  0.000E+00  0.000E+00  0.000E+00  9.99764E+02  2.889E+00  4.189E+01  4.268E+00 -2.046E-01
   1   13    1     8     6    1.6173E+02 -2.0393E+00   1.6377E+02  0.000E+00  0.000E+00  0.000E+00  9.94779E+02  2.904E+00  4.211E+01  2.575E+00 -2.640E-01
   1    8    6     9     1    2.3115E+01  0.0000E+00   2.3115E+01  0.000E+00  0.000E+00  0.000E+00  1.08250E+03  3.746E+00  4.000E+00  0.000E+00  2.249E+00
   1    8    5     9     2    2.3115E+01  0.0000E+00   2.3115E+01  0.000E+00  0.000E+00  0.000E+00  1.08200E+03  3.746E+00  4.000E+00  0.000E+00  2.249E+00





UNSATURATED ZONE PACKAGE VOLUMETRIC BUDGET FOR  TIME STEP    30 STRESS PERIOD   44
  ------------------------------------------------------------------------------



     CUMULATIVE VOLUMES      L**3       RATES FOR THIS TIME STEP      L**3/T
     ------------------                 ------------------------

           IN:                                      IN:
           ---                                      ---
        INFILTRATION =  1826979159.6903          INFILTRATION =         183.7963

          OUT:                                     OUT:
          ----                                     ----
              UZF ET =  1536040581.4821                UZF ET =          60.8175
        UZF RECHARGE =    54083381.9624          UZF RECHARGE =       0.0000E+00

            IN - OUT =   236855196.2458              IN - OUT =         122.9788

          STORAGE:                                 STORAGE:
          --------                                 --------
      STORAGE CHANGE =   237038070.6320        STORAGE CHANGE =         122.9788

 PERCENT DISCREPANCY IS DIFFERENCE BETWEEN IN-OUT MINUS CHANGE IN STORAGE
 DIVIDED BY THE AVERAGE OF IN AND OUT TIMES 100

 PERCENT DISCREPANCY =          -0.00     PERCENT DISCREPANCY =           0.00






1
  VOLUMETRIC BUDGET FOR AGRICULTURAL FIELDS AT  END OF TIME STEP   30, STRESS PERIOD  44
  ------------------------------------------------------------------------------

     CUMULATIVE VOLUMES      L**3       RATES FOR THIS TIME STEP      L**3/T
     ------------------                 ------------------------

           IN:                                      IN:
           ---                                      ---
           AG WELLS      =   593922496.0000             AG WELLS      =         159.8329
      DIVERSION SEGMENTS =  1137178368.0000        DIVERSION SEGMENTS =          23.1155
           GW IRRIGATION =           0.0000             GW IRRIGATION =           0.0000
           SW IRRIGATION =           0.0000             SW IRRIGATION =           0.0000
        SYSTEM LOSSES GW =           0.0000          SYSTEM LOSSES GW =           0.0000
        SYSTEM LOSSES SW =           0.0000          SYSTEM LOSSES SW =           0.0000

                TOTAL IN =  1731100928.0000                  TOTAL IN =         182.9484

          OUT:                                     OUT:
          ----                                     ----
           AG WELLS      =           0.0000             AG WELLS      =           0.0000
      DIVERSION SEGMENTS =           0.0000        DIVERSION SEGMENTS =           0.0000
           GW IRRIGATION =   593922496.0000             GW IRRIGATION =         159.8329
           SW IRRIGATION =  1137199872.0000             SW IRRIGATION =          23.1159
        SYSTEM LOSSES GW =           0.0000          SYSTEM LOSSES GW =           0.0000
        SYSTEM LOSSES SW =           0.0000          SYSTEM LOSSES SW =           0.0000

               TOTAL OUT =  1731122432.0000                 TOTAL OUT =         182.9489

                IN - OUT =      -21504.0000                  IN - OUT =      -4.7302E-04

     PERCENT DISCREPANCY =          -0.00         PERCENT DISCREPANCY =          -0.00



1
  VOLUMETRIC BUDGET FOR ENTIRE MODEL AT END OF TIME STEP   30, STRESS PERIOD  44
  ------------------------------------------------------------------------------

     CUMULATIVE VOLUMES      L**3       RATES FOR THIS TIME STEP      L**3/T
     ------------------                 ------------------------

           IN:                                      IN:
           ---                                      ---
             STORAGE     =   935509504.0000               STORAGE     =         159.1640
       CONSTANT HEAD     =           0.0000         CONSTANT HEAD     =           0.0000
     HEAD DEP BOUNDS     =    32374710.0000       HEAD DEP BOUNDS     =           0.2869
      STREAM LEAKAGE     =  1365266176.0000        STREAM LEAKAGE     =          11.7408
        UZF RECHARGE     =    54083364.0000          UZF RECHARGE     =           0.0000
               GW ET     =           0.0000                 GW ET     =           0.0000
     SURFACE LEAKAGE     =           0.0000       SURFACE LEAKAGE     =           0.0000
           AG WELLS      =           0.0000             AG WELLS      =           0.0000

                TOTAL IN =  2387233792.0000                  TOTAL IN =         171.1917

          OUT:                                     OUT:
          ----                                     ----
             STORAGE     =   551150080.0000               STORAGE     =           0.1977
       CONSTANT HEAD     =           0.0000         CONSTANT HEAD     =           0.0000
     HEAD DEP BOUNDS     =    32910994.0000       HEAD DEP BOUNDS     =           0.2877
      STREAM LEAKAGE     =  1206115968.0000        STREAM LEAKAGE     =          10.8733
        UZF RECHARGE     =           0.0000          UZF RECHARGE     =           0.0000
               GW ET     =     3143644.7500                 GW ET     =           0.0000
     SURFACE LEAKAGE     =           0.0000       SURFACE LEAKAGE     =           0.0000
           AG WELLS      =   593922496.0000             AG WELLS      =         159.8329

               TOTAL OUT =  2387243264.0000                 TOTAL OUT =         171.1916

                IN - OUT =       -9472.0000                  IN - OUT =       7.6294E-05

     PERCENT DISCREPANCY =          -0.00         PERCENT DISCREPANCY =           0.00






         TIME SUMMARY AT END OF TIME STEP   30 IN STRESS PERIOD   44
                    SECONDS     MINUTES      HOURS       DAYS        YEARS
                    -----------------------------------------------------------
   TIME STEP LENGTH  87667.      1461.1      24.352      1.0147     2.77799E-03
 STRESS PERIOD TIME 2.63000E+06  43833.      730.56      30.440     8.33397E-02
         TOTAL TIME 1.13175E+08 1.88626E+06  31438.      1309.9      3.5863    
1
1
                            STRESS PERIOD NO.   45, LENGTH =   2630000.    
                            -----------------------------------------------

                              NUMBER OF TIME STEPS =    30

                               MULTIPLIER FOR DELT =     1.000

                            INITIAL TIME STEP SIZE =   87666.66    

 REUSING NON-PARAMETER GHB CELLS FROM LAST STRESS PERIOD

      2 GHB CELLS

 REUSING STREAM SEGMENT DATA FROM LAST STRESS PERIOD



            AREAL INFILTRATION RATE
 READING ON UNIT   19 WITH FORMAT: (FREE)              

            1           2           3           4           5           6           7           8           9          10
 ........................................................................................................................
   1   1.0000E-10  2.0000E-10   0.000       0.000       0.000       0.000       0.000       0.000       0.000       0.000    
   2   2.0000E-10  1.0000E-10  2.0000E-10   0.000       0.000      8.0000E-10  8.0000E-10  5.0000E-10   0.000       0.000    
   3    0.000      5.0000E-10  1.0000E-10  1.0000E-10  8.0000E-10  8.0000E-10  5.0000E-10  5.0000E-10   0.000       0.000    
   4   8.0000E-10  5.0000E-10  1.0000E-10  1.0000E-10  1.0000E-10  1.0000E-10  1.0000E-10  1.0000E-10  2.0000E-10   0.000    
   5   8.0000E-10  5.0000E-10  1.0000E-10  1.0000E-10  1.0000E-10  1.0000E-10  1.0000E-10  1.0000E-10  1.0000E-10  1.0000E-10
   6   8.0000E-10  5.0000E-10  5.0000E-10  2.0000E-10  2.0000E-10  1.0000E-10  1.0000E-10  1.0000E-10  1.0000E-10  5.0000E-10
   7   8.0000E-10  5.0000E-10  5.0000E-10  2.0000E-10  2.0000E-10  1.0000E-10  1.0000E-10  2.0000E-10  2.0000E-10   0.000    
   8    0.000      5.0000E-10  5.0000E-10  2.0000E-10  2.0000E-10  1.0000E-10  1.0000E-10  2.0000E-10  5.0000E-10   0.000    
   9    0.000      5.0000E-10  5.0000E-10  2.0000E-10  2.0000E-10  1.0000E-10  1.0000E-10  2.0000E-10  5.0000E-10   0.000    
  10    0.000      5.0000E-10  5.0000E-10  2.0000E-10  2.0000E-10  1.0000E-10  1.0000E-10  2.0000E-10  5.0000E-10  8.0000E-10
  11    0.000      1.0000E-10  1.0000E-10  1.0000E-10  1.0000E-10  1.0000E-10  1.0000E-10  2.0000E-10  5.0000E-10   0.000    
  12   1.0000E-10  1.0000E-10  1.0000E-10  1.0000E-10  1.0000E-10  1.0000E-10  1.0000E-10  1.0000E-10  2.0000E-10   0.000    
  13   1.0000E-10  1.0000E-10  2.0000E-10  2.0000E-10  2.0000E-10  2.0000E-10  2.0000E-10  1.0000E-10  1.0000E-10   0.000    
  14    0.000      2.0000E-10  5.0000E-10  5.0000E-10  5.0000E-10  5.0000E-10  5.0000E-10  2.0000E-10  1.0000E-10   0.000    
  15    0.000       0.000      8.0000E-10  8.0000E-10  8.0000E-10  8.0000E-10   0.000       0.000       0.000       0.000    

                  ET RATE =  3.250000E-07

 USING ET EXTINCTION DEPTH FROM PREVIOUS STRESS PERIOD. CURRENT PERIOD IS:      45

 USING EXTINCTION WATER CONTENT FROM PREVIOUS STRESS PERIOD. CURRENT PERIOD IS:      45

 USING AIR ENTRY PRESSURE FROM PREVIOUS STRESS PERIOD. CURRENT PERIOD IS:      45

 USING ROOT PRESSURE HEAD FROM PREVIOUS STRESS PERIOD. CURRENT PERIOD IS:      45

 USING ROOT ACTIVITY FROM PREVIOUS STRESS PERIOD. CURRENT PERIOD IS:      45

 PROCESSING AG STRESS PERIOD DATA

 READING AG STRESS PERIOD DATA

 READING IRRIGATION SEGMENT

 READING IRRIGATION WELL

 READING SUPPLEMENTAL WELL

 END PROCESSING AG STRESS PERIOD DATA OPTIONS
 
 SOLVING FOR HEAD 
                                                   Max.-Head-Change                         Max.-Flux-Residual
  Residual-Control   Outer-Iter.   Inner-Iter.     Column Row Layer    Maximum-Head-Change  Column Row Layer    Maximum-Flux-Residual          L2-NORM 
          0                 1           2             5    8     1       0.5204248829E-01       5    8    1         0.2841786474E+01      0.6397496933E+01
          0                 2           2             5    6     1      -0.8411637898E-01       5    8    1        -0.4635156648E+01      0.1121614187E+02
          0                 3           2             5    6     1       0.5727707117E-02       5    8    1         0.3244435584E+00      0.7850872020E+00
          0                 4           2             5    6     1      -0.2279109573E-03       5    8    1        -0.1326976844E-01      0.3211013075E-01
          0                 5           1             5    6     1       0.2810236603E-05       5    8    1         0.1681688550E-03      0.4069349954E-03

    ------------------------------------------------
       NWT REQUIRED            5 OUTER ITERATIONS 
       AND A TOTAL OF          9 INNER ITERATIONS.
    ------------------------------------------------

 NO OUTPUT CONTROL FOR STRESS PERIOD   45   TIME STEP    1
 
 SOLVING FOR HEAD 
                                                   Max.-Head-Change                         Max.-Flux-Residual
  Residual-Control   Outer-Iter.   Inner-Iter.     Column Row Layer    Maximum-Head-Change  Column Row Layer    Maximum-Flux-Residual          L2-NORM 
          0                 1           2             5    8     1       0.5192811480E-01       5    8    1         0.2834213855E+01      0.6468867063E+01
          0                 2           2             5    6     1      -0.7504802576E-01       5    8    1        -0.4136001805E+01      0.1004889095E+02
          0                 3           2             4    7     1      -0.1786142778E+01       4    7    1        -0.9586722881E+02      0.2348125108E+03
          0                 4           2             4    7     1       0.1216289980E+00       5    8    1         0.6711471829E+01      0.1643896315E+02
          0                 5           2             4    7     1      -0.4840965016E-02       5    8    1        -0.2746207880E+00      0.6726397517E+00
          0                 6           1             4    7     1       0.5973537468E-04       5    8    1         0.3483515077E-02      0.8532496969E-02

    ------------------------------------------------
       NWT REQUIRED            6 OUTER ITERATIONS 
       AND A TOTAL OF         11 INNER ITERATIONS.
    ------------------------------------------------

 NO OUTPUT CONTROL FOR STRESS PERIOD   45   TIME STEP    2
 
 SOLVING FOR HEAD 
                                                   Max.-Head-Change                         Max.-Flux-Residual
  Residual-Control   Outer-Iter.   Inner-Iter.     Column Row Layer    Maximum-Head-Change  Column Row Layer    Maximum-Flux-Residual          L2-NORM 
          0                 1           2             5    8     1       0.1035265822E+00       5    8    1         0.5680672430E+01      0.1235871283E+02
          0                 2           2             5    8     1      -0.1010209428E-01       5    8    1        -0.5698150392E+00      0.1242570478E+01
          0                 3           2             4    7     1      -0.3850400407E-03       4    7    1        -0.2114562766E-01      0.5343339387E-01
          0                 4           2             4    7     1      -0.3153740919E-02       5    8    1        -0.1709105615E+00      0.4199199413E+00
          0                 5           2             4    7     1       0.3980004692E-02       5    7    1         0.2199493500E+00      0.5301700984E+00
          0                 6           2             4    7     1      -0.1584433115E-03       5    7    1        -0.9375682557E-02      0.1901002415E-01
          0                 7           1             4    7     1       0.1956575189E-05       5    7    1         0.1163013421E-03      0.2383755027E-03

    ------------------------------------------------
       NWT REQUIRED            7 OUTER ITERATIONS 
       AND A TOTAL OF         13 INNER ITERATIONS.
    ------------------------------------------------

 NO OUTPUT CONTROL FOR STRESS PERIOD   45   TIME STEP    3
 
 SOLVING FOR HEAD 
                                                   Max.-Head-Change                         Max.-Flux-Residual
  Residual-Control   Outer-Iter.   Inner-Iter.     Column Row Layer    Maximum-Head-Change  Column Row Layer    Maximum-Flux-Residual          L2-NORM 
          0                 1           2             5    8     1       0.9814043871E-01       5    8    1         0.5379864398E+01      0.1182596290E+02
          0                 2           2             5    8     1      -0.1524200155E+00       5    8    1        -0.8405311889E+01      0.2027521976E+02
          0                 3           2             4    7     1       0.8007828950E-01       5    8    1         0.4440945592E+01      0.1085426517E+02
          0                 4           2             4    7     1      -0.3217435519E-02       5    8    1        -0.1833484613E+00      0.4482126144E+00
          0                 5           1             4    7     1       0.3967231536E-04       5    8    1         0.2320387008E-02      0.5687203442E-02

    ------------------------------------------------
       NWT REQUIRED            5 OUTER ITERATIONS 
       AND A TOTAL OF          9 INNER ITERATIONS.
    ------------------------------------------------

 NO OUTPUT CONTROL FOR STRESS PERIOD   45   TIME STEP    4
 
 SOLVING FOR HEAD 
                                                   Max.-Head-Change                         Max.-Flux-Residual
  Residual-Control   Outer-Iter.   Inner-Iter.     Column Row Layer    Maximum-Head-Change  Column Row Layer    Maximum-Flux-Residual          L2-NORM 
          0                 1           2             5    8     1       0.9529485927E-01       5    8    1         0.5219730120E+01      0.1158196448E+02
          0                 2           2             5    8     1      -0.8483043704E-01       5    8    1        -0.4682713640E+01      0.1121129885E+02
          0                 3           2             4    7     1      -0.1742807268E+01       4    7    1        -0.9353947382E+02      0.2290935007E+03
          0                 4           2             4    7     1       0.1186782960E+00       4    7    1         0.6547698908E+01      0.1603862804E+02
          0                 5           2             4    7     1      -0.4723521966E-02       5    8    1        -0.2679180653E+00      0.6562594780E+00
          0                 6           1             4    7     1       0.5828618231E-04       5    8    1         0.3398497272E-02      0.8324725113E-02

    ------------------------------------------------
       NWT REQUIRED            6 OUTER ITERATIONS 
       AND A TOTAL OF         11 INNER ITERATIONS.
    ------------------------------------------------

 NO OUTPUT CONTROL FOR STRESS PERIOD   45   TIME STEP    5
 
 SOLVING FOR HEAD 
                                                   Max.-Head-Change                         Max.-Flux-Residual
  Residual-Control   Outer-Iter.   Inner-Iter.     Column Row Layer    Maximum-Head-Change  Column Row Layer    Maximum-Flux-Residual          L2-NORM 
          0                 1           2             5    8     1       0.1434532574E+00       5    8    1         0.7874678770E+01      0.1717882204E+02
          0                 2           2             5    8     1      -0.1398572655E-01       5    8    1        -0.7892049512E+00      0.1723388649E+01
          0                 3           2             5    8     1       0.4577842876E-03       5    8    1         0.2724863194E-01      0.7725670329E-01
          0                 4           2             4    7     1      -0.4968577391E-02       5    8    1        -0.2683852004E+00      0.6596045029E+00
          0                 5           2             4    7     1       0.5722199332E-02       4    7    1         0.3163857517E+00      0.7422677168E+00
          0                 6           1             4    7     1      -0.2277999776E-03       4    7    1        -0.1369960144E-01      0.1710920784E-01
          0                 7           1             4    7     1       0.2813041481E-05       4    7    1         0.1684257395E-03      0.2211797652E-03

    ------------------------------------------------
       NWT REQUIRED            7 OUTER ITERATIONS 
       AND A TOTAL OF         12 INNER ITERATIONS.
    ------------------------------------------------

 NO OUTPUT CONTROL FOR STRESS PERIOD   45   TIME STEP    6
 
 SOLVING FOR HEAD 
                                                   Max.-Head-Change                         Max.-Flux-Residual
  Residual-Control   Outer-Iter.   Inner-Iter.     Column Row Layer    Maximum-Head-Change  Column Row Layer    Maximum-Flux-Residual          L2-NORM 
          0                 1           2             5    8     1       0.1359315441E+00       5    8    1         0.7454648869E+01      0.1643238983E+02
          0                 2           2             5    8     1      -0.1543349349E+00       5    8    1        -0.8515746340E+01      0.2041247481E+02
          0                 3           2             4    7     1       0.8004597242E-01       5    8    1         0.4448676134E+01      0.1086321333E+02
          0                 4           2             4    7     1      -0.3216149605E-02       5    8    1        -0.1836702952E+00      0.4485793896E+00
          0                 5           1             4    7     1       0.3965646111E-04       5    8    1         0.2324849740E-02      0.5690096529E-02

    ------------------------------------------------
       NWT REQUIRED            5 OUTER ITERATIONS 
       AND A TOTAL OF          9 INNER ITERATIONS.
    ------------------------------------------------

 NO OUTPUT CONTROL FOR STRESS PERIOD   45   TIME STEP    7
 
 SOLVING FOR HEAD 
                                                   Max.-Head-Change                         Max.-Flux-Residual
  Residual-Control   Outer-Iter.   Inner-Iter.     Column Row Layer    Maximum-Head-Change  Column Row Layer    Maximum-Flux-Residual          L2-NORM 
          0                 1           2             5    8     1       0.1310442408E+00       5    8    1         0.7180641067E+01      0.1598195599E+02
          0                 2           2             5    8     1      -0.8846509975E-01       5    8    1        -0.4887424888E+01      0.1159955772E+02
          0                 3           2             4    7     1      -0.1698566070E+01       4    7    1        -0.9116284747E+02      0.2232593119E+03
          0                 4           2             4    7     1       0.1156660504E+00       4    7    1         0.6381363573E+01      0.1563024419E+02
          0                 5           2             4    7     1      -0.4603629457E-02       5    8    1        -0.2610853178E+00      0.6395496501E+00
          0                 6           1             4    7     1       0.5680676492E-04       5    8    1         0.3311828953E-02      0.8112757825E-02

    ------------------------------------------------
       NWT REQUIRED            6 OUTER ITERATIONS 
       AND A TOTAL OF         11 INNER ITERATIONS.
    ------------------------------------------------

 NO OUTPUT CONTROL FOR STRESS PERIOD   45   TIME STEP    8
 
 SOLVING FOR HEAD 
                                                   Max.-Head-Change                         Max.-Flux-Residual
  Residual-Control   Outer-Iter.   Inner-Iter.     Column Row Layer    Maximum-Head-Change  Column Row Layer    Maximum-Flux-Residual          L2-NORM 
          0                 1           2             5    8     1       0.1760723552E+00       5    8    1         0.9661760103E+01      0.2124675004E+02
          0                 2           2             5    8     1      -0.1715850221E-01       5    8    1        -0.9679016836E+00      0.2129947984E+01
          0                 3           2             5    8     1       0.6891894919E-03       5    8    1         0.4062657636E-01      0.1034917200E+00
          0                 4           2             4    7     1      -0.1081722131E-01       5    8    1        -0.5823984847E+00      0.1432151800E+01
          0                 5           2             4    7     1       0.1178688490E-01       4    7    1         0.6517674924E+00      0.1525262587E+01
          0                 6           2             4    7     1      -0.4692350328E-03       4    7    1        -0.2821221941E-01      0.3519910041E-01
          0                 7           1             4    7     1       0.5794458156E-05       4    7    1         0.3469122898E-03      0.4550273948E-03

    ------------------------------------------------
       NWT REQUIRED            7 OUTER ITERATIONS 
       AND A TOTAL OF         13 INNER ITERATIONS.
    ------------------------------------------------

 NO OUTPUT CONTROL FOR STRESS PERIOD   45   TIME STEP    9
 
 SOLVING FOR HEAD 
                                                   Max.-Head-Change                         Max.-Flux-Residual
  Residual-Control   Outer-Iter.   Inner-Iter.     Column Row Layer    Maximum-Head-Change  Column Row Layer    Maximum-Flux-Residual          L2-NORM 
          0                 1           2             5    8     1       0.1668974904E+00       5    8    1         0.9149661930E+01      0.2033340698E+02
          0                 2           2             5    8     1      -0.1501656271E+00       5    8    1        -0.8289738671E+01      0.1977586159E+02
          0                 3           2             4    7     1       0.7964028340E-01       5    8    1         0.4432856500E+01      0.1081781503E+02
          0                 4           2             4    7     1      -0.3200006797E-02       5    8    1        -0.1830279414E+00      0.4467254260E+00
          0                 5           1             4    7     1       0.3945741433E-04       5    8    1         0.2317027818E-02      0.5665497241E-02

    ------------------------------------------------
       NWT REQUIRED            5 OUTER ITERATIONS 
       AND A TOTAL OF          9 INNER ITERATIONS.
    ------------------------------------------------

 NO OUTPUT CONTROL FOR STRESS PERIOD   45   TIME STEP   10
 
 SOLVING FOR HEAD 
                                                   Max.-Head-Change                         Max.-Flux-Residual
  Residual-Control   Outer-Iter.   Inner-Iter.     Column Row Layer    Maximum-Head-Change  Column Row Layer    Maximum-Flux-Residual          L2-NORM 
          0                 1           2             5    8     1       0.1602529644E+00       5    8    1         0.8777955550E+01      0.1970074653E+02
          0                 2           2             5    8     1      -0.9208134864E-01       5    8    1        -0.5089794907E+01      0.1202570711E+02
          0                 3           2             4    7     1      -0.1511751319E+01       4    7    1        -0.8113435381E+02      0.1986857596E+03
          0                 4           2             4    7     1       0.1029460929E+00       4    7    1         0.5679466791E+01      0.1391006473E+02
          0                 5           2             4    7     1      -0.4097354348E-02       4    7    1        -0.2323530984E+00      0.5691638356E+00
          0                 6           1             4    7     1       0.5055956428E-04       5    8    1         0.2947207960E-02      0.7219916750E-02

    ------------------------------------------------
       NWT REQUIRED            6 OUTER ITERATIONS 
       AND A TOTAL OF         11 INNER ITERATIONS.
    ------------------------------------------------

 NO OUTPUT CONTROL FOR STRESS PERIOD   45   TIME STEP   11
 
 SOLVING FOR HEAD 
                                                   Max.-Head-Change                         Max.-Flux-Residual
  Residual-Control   Outer-Iter.   Inner-Iter.     Column Row Layer    Maximum-Head-Change  Column Row Layer    Maximum-Flux-Residual          L2-NORM 
          0                 1           2             5    8     1       0.1984568595E+00       5    8    1         0.1088182280E+02      0.2418608781E+02
          0                 2           2             5    8     1      -0.1933577288E-01       5    8    1        -0.1089898835E+01      0.2423651562E+01
          0                 3           2             5    8     1       0.8475649567E-03       5    8    1         0.4973894716E-01      0.1230028201E+00
          0                 4           2             4    7     1      -0.1766242277E-01       5    8    1        -0.1003492034E+01      0.2468367096E+01
          0                 5           2             4    7     1       0.1788647283E-01       5    6    1         0.1042475708E+01      0.2553574632E+01
          0                 6           2             4    7     1       0.2630584967E-03       5    8    1         0.1534551066E-01      0.3759589564E-01
          0                 7           1             4    7     1       0.3866231667E-05       5    8    1         0.2255342333E-03      0.5525176998E-03

    ------------------------------------------------
       NWT REQUIRED            7 OUTER ITERATIONS 
       AND A TOTAL OF         13 INNER ITERATIONS.
    ------------------------------------------------

 NO OUTPUT CONTROL FOR STRESS PERIOD   45   TIME STEP   12
 
 SOLVING FOR HEAD 
                                                   Max.-Head-Change                         Max.-Flux-Residual
  Residual-Control   Outer-Iter.   Inner-Iter.     Column Row Layer    Maximum-Head-Change  Column Row Layer    Maximum-Flux-Residual          L2-NORM 
          0                 1           2             5    8     1       0.1882558095E+00       5    8    1         0.1031283488E+02      0.2316775041E+02
          0                 2           2             5    8     1      -0.1418013101E+00       5    8    1        -0.7831024034E+01      0.1862461454E+02
          0                 3           2             4    7     1       0.7649925960E-01       5    8    1         0.4262591714E+01      0.1039799270E+02
          0                 4           2             4    7     1      -0.3044008226E-02       5    8    1        -0.1743105043E+00      0.4252537611E+00
          0                 5           1             4    7     1       0.3753389042E-04       5    8    1         0.2206922299E-02      0.5392866356E-02

    ------------------------------------------------
       NWT REQUIRED            5 OUTER ITERATIONS 
       AND A TOTAL OF          9 INNER ITERATIONS.
    ------------------------------------------------

 NO OUTPUT CONTROL FOR STRESS PERIOD   45   TIME STEP   13
 
 SOLVING FOR HEAD 
                                                   Max.-Head-Change                         Max.-Flux-Residual
  Residual-Control   Outer-Iter.   Inner-Iter.     Column Row Layer    Maximum-Head-Change  Column Row Layer    Maximum-Flux-Residual          L2-NORM 
          0                 1           2             5    8     1       0.1804116359E+00       5    8    1         0.9874714507E+01      0.2240759948E+02
          0                 2           2             5    8     1      -0.9437315889E-01       5    8    1        -0.5217655563E+01      0.1231588740E+02
          0                 3           2             4    7     1      -0.1445105435E+01       4    7    1        -0.7755547278E+02      0.1899150684E+03
          0                 4           2             4    7     1       0.9840820778E-01       4    7    1         0.5428984429E+01      0.1329611861E+02
          0                 5           2             4    7     1      -0.3916739587E-02       5    8    1        -0.2221068314E+00      0.5440427104E+00
          0                 6           1             4    7     1       0.4833086106E-04       5    8    1         0.2817398517E-02      0.6901258473E-02

    ------------------------------------------------
       NWT REQUIRED            6 OUTER ITERATIONS 
       AND A TOTAL OF         11 INNER ITERATIONS.
    ------------------------------------------------

 NO OUTPUT CONTROL FOR STRESS PERIOD   45   TIME STEP   14
 
 SOLVING FOR HEAD 
                                                   Max.-Head-Change                         Max.-Flux-Residual
  Residual-Control   Outer-Iter.   Inner-Iter.     Column Row Layer    Maximum-Head-Change  Column Row Layer    Maximum-Flux-Residual          L2-NORM 
          0                 1           2             5    8     1       0.2158524352E+00       5    8    1         0.1182360738E+02      0.2655855541E+02
          0                 2           2             5    8     1      -0.2102765783E-01       5    8    1        -0.1184077901E+01      0.2660950211E+01
          0                 3           2             5    8     1       0.9251171336E-03       5    8    1         0.5419982621E-01      0.1350534580E+00
          0                 4           2             4    7     1      -0.5733849425E-02       5    8    1        -0.3271257515E+00      0.8037488528E+00
          0                 5           2             4    7     1       0.6167982541E-02       5    8    1         0.3594959404E+00      0.8805774966E+00
          0                 6           1             4    7     1       0.9071371752E-04       5    8    1         0.5291853153E-02      0.1296459104E-01

    ------------------------------------------------
       NWT REQUIRED            6 OUTER ITERATIONS 
       AND A TOTAL OF         11 INNER ITERATIONS.
    ------------------------------------------------

 NO OUTPUT CONTROL FOR STRESS PERIOD   45   TIME STEP   15
 
 SOLVING FOR HEAD 
                                                   Max.-Head-Change                         Max.-Flux-Residual
  Residual-Control   Outer-Iter.   Inner-Iter.     Column Row Layer    Maximum-Head-Change  Column Row Layer    Maximum-Flux-Residual          L2-NORM 
          0                 1           2             5    8     1       0.2049607822E+00       5    8    1         0.1121676105E+02      0.2546501420E+02
          0                 2           2             5    8     1      -0.1597397242E+00       5    8    1        -0.8819709047E+01      0.2102896550E+02
          0                 3           2             4    7     1       0.8023429900E-01       5    8    1         0.4469954041E+01      0.1090482844E+02
          0                 4           2             4    7     1      -0.3223645010E-02       5    8    1        -0.1845494703E+00      0.4502885596E+00
          0                 5           1             4    7     1       0.3974888355E-04       5    8    1         0.2336597340E-02      0.5709758100E-02

    ------------------------------------------------
       NWT REQUIRED            5 OUTER ITERATIONS 
       AND A TOTAL OF          9 INNER ITERATIONS.
    ------------------------------------------------

 NO OUTPUT CONTROL FOR STRESS PERIOD   45   TIME STEP   16
 
 SOLVING FOR HEAD 
                                                   Max.-Head-Change                         Max.-Flux-Residual
  Residual-Control   Outer-Iter.   Inner-Iter.     Column Row Layer    Maximum-Head-Change  Column Row Layer    Maximum-Flux-Residual          L2-NORM 
          0                 1           2             5    8     1       0.1968739105E+00       5    8    1         0.1076547162E+02      0.2467898750E+02
          0                 2           2             5    8     1      -0.9496129434E-01       5    8    1        -0.5250975994E+01      0.1239286682E+02
          0                 3           2             4    7     1      -0.1673529723E+01       4    7    1        -0.8981013647E+02      0.2199309349E+03
          0                 4           2             4    7     1       0.1139612399E+00       4    7    1         0.6286682446E+01      0.1539724792E+02
          0                 5           2             4    7     1      -0.4535775213E-02       4    7    1        -0.2571954355E+00      0.6300166564E+00
          0                 6           1             4    7     1       0.5596947495E-04       5    8    1         0.3262327677E-02      0.7991844734E-02

    ------------------------------------------------
       NWT REQUIRED            6 OUTER ITERATIONS 
       AND A TOTAL OF         11 INNER ITERATIONS.
    ------------------------------------------------

 NO OUTPUT CONTROL FOR STRESS PERIOD   45   TIME STEP   17
 
 SOLVING FOR HEAD 
                                                   Max.-Head-Change                         Max.-Flux-Residual
  Residual-Control   Outer-Iter.   Inner-Iter.     Column Row Layer    Maximum-Head-Change  Column Row Layer    Maximum-Flux-Residual          L2-NORM 
          0                 1           2             5    8     1       0.2382393934E+00       5    8    1         0.1304278827E+02      0.2948625486E+02
          0                 2           2             5    8     1      -0.2320539114E-01       5    8    1        -0.1305986165E+01      0.2953365419E+01
          0                 3           2             5    8     1       0.1109872672E-02       5    8    1         0.6479742635E-01      0.1575559741E+00
          0                 4           2             4    7     1      -0.2328682228E-01       5    8    1        -0.1322533684E+01      0.3253313733E+01
          0                 5           2             4    7     1       0.2342178617E-01       5    6    1         0.1364980918E+01      0.3343565133E+01
          0                 6           2             4    7     1       0.3147701670E-03       5    8    1         0.1836224915E-01      0.4499991748E-01
          0                 7           1             4    7     1       0.3479441819E-04       5    8    1         0.2027970136E-02      0.4967265246E-02

    ------------------------------------------------
       NWT REQUIRED            7 OUTER ITERATIONS 
       AND A TOTAL OF         13 INNER ITERATIONS.
    ------------------------------------------------

 NO OUTPUT CONTROL FOR STRESS PERIOD   45   TIME STEP   18
 
 SOLVING FOR HEAD 
                                                   Max.-Head-Change                         Max.-Flux-Residual
  Residual-Control   Outer-Iter.   Inner-Iter.     Column Row Layer    Maximum-Head-Change  Column Row Layer    Maximum-Flux-Residual          L2-NORM 
          0                 1           2             5    8     1       0.2263399200E+00       5    8    1         0.1238002015E+02      0.2829155868E+02
          0                 2           2             5    8     1      -0.1372587506E+00       5    8    1        -0.7583571602E+01      0.1798616562E+02
          0                 3           2             4    7     1       0.6708451759E-01       5    8    1         0.3747217825E+01      0.9132071174E+01
          0                 4           2             4    7     1      -0.2669378954E-02       5    8    1        -0.1532430343E+00      0.3734978883E+00
          0                 5           1             4    7     1       0.3291456247E-04       5    8    1         0.1940729728E-02      0.4736931964E-02

    ------------------------------------------------
       NWT REQUIRED            5 OUTER ITERATIONS 
       AND A TOTAL OF          9 INNER ITERATIONS.
    ------------------------------------------------

 NO OUTPUT CONTROL FOR STRESS PERIOD   45   TIME STEP   19
 
 SOLVING FOR HEAD 
                                                   Max.-Head-Change                         Max.-Flux-Residual
  Residual-Control   Outer-Iter.   Inner-Iter.     Column Row Layer    Maximum-Head-Change  Column Row Layer    Maximum-Flux-Residual          L2-NORM 
          0                 1           2             5    8     1       0.2169208893E+00       5    8    1         0.1185496048E+02      0.2736504570E+02
          0                 2           2             5    8     1      -0.9503546060E-01       5    8    1        -0.5256560990E+01      0.1239073608E+02
          0                 3           2             4    7     1      -0.1781545556E+01       4    7    1        -0.9560390602E+02      0.2341185725E+03
          0                 4           2             4    7     1       0.1213159170E+00       4    7    1         0.6692191114E+01      0.1639041117E+02
          0                 5           2             4    7     1      -0.4828504183E-02       4    7    1        -0.2737856035E+00      0.6706551281E+00
          0                 6           1             4    7     1       0.5958161318E-04       5    8    1         0.3472771981E-02      0.8507349106E-02

    ------------------------------------------------
       NWT REQUIRED            6 OUTER ITERATIONS 
       AND A TOTAL OF         11 INNER ITERATIONS.
    ------------------------------------------------

 NO OUTPUT CONTROL FOR STRESS PERIOD   45   TIME STEP   20
 
 SOLVING FOR HEAD 
                                                   Max.-Head-Change                         Max.-Flux-Residual
  Residual-Control   Outer-Iter.   Inner-Iter.     Column Row Layer    Maximum-Head-Change  Column Row Layer    Maximum-Flux-Residual          L2-NORM 
          0                 1           2             5    8     1       0.2604875391E+00       5    8    1         0.1425354555E+02      0.3240864045E+02
          0                 2           2             5    8     1      -0.2536937217E-01       5    8    1        -0.1427051021E+01      0.3245458711E+01
          0                 3           2             5    8     1       0.1104595872E-02       5    8    1         0.6463281350E-01      0.1632431140E+00
          0                 4           2             4    7     1      -0.3017795300E-02       5    8    1        -0.1733558386E+00      0.4252393299E+00
          0                 5           2             4    7     1       0.3601839523E-02       5    8    1         0.2099282137E+00      0.5141994725E+00
          0                 6           1             4    7     1       0.5297301248E-04       5    8    1         0.3090155579E-02      0.7570353489E-02

    ------------------------------------------------
       NWT REQUIRED            6 OUTER ITERATIONS 
       AND A TOTAL OF         11 INNER ITERATIONS.
    ------------------------------------------------

 NO OUTPUT CONTROL FOR STRESS PERIOD   45   TIME STEP   21
 
 SOLVING FOR HEAD 
                                                   Max.-Head-Change                         Max.-Flux-Residual
  Residual-Control   Outer-Iter.   Inner-Iter.     Column Row Layer    Maximum-Head-Change  Column Row Layer    Maximum-Flux-Residual          L2-NORM 
          0                 1           2             5    8     1       0.2476008609E+00       5    8    1         0.1353606890E+02      0.3111330078E+02
          0                 2           2             5    8     1      -0.1669641449E+00       5    8    1        -0.9220884419E+01      0.2195405503E+02
          0                 3           2             4    7     1       0.8065004680E-01       5    8    1         0.4498036420E+01      0.1096859213E+02
          0                 4           2             4    7     1      -0.3240190387E-02       5    8    1        -0.1857029449E+00      0.4529034372E+00
          0                 5           1             4    7     1       0.3995289594E-04       5    8    1         0.2351548305E-02      0.5742303079E-02

    ------------------------------------------------
       NWT REQUIRED            5 OUTER ITERATIONS 
       AND A TOTAL OF          9 INNER ITERATIONS.
    ------------------------------------------------

 NO OUTPUT CONTROL FOR STRESS PERIOD   45   TIME STEP   22
 
 SOLVING FOR HEAD 
                                                   Max.-Head-Change                         Max.-Flux-Residual
  Residual-Control   Outer-Iter.   Inner-Iter.     Column Row Layer    Maximum-Head-Change  Column Row Layer    Maximum-Flux-Residual          L2-NORM 
          0                 1           2             5    8     1       0.2377346522E+00       5    8    1         0.1298614464E+02      0.3014538420E+02
          0                 2           2             5    8     1      -0.9868875849E-01       5    8    1        -0.5459309934E+01      0.1286628596E+02
          0                 3           2             4    7     1      -0.1742561533E+01       4    7    1        -0.9350890669E+02      0.2289831525E+03
          0                 4           2             4    7     1       0.1186615034E+00       4    7    1         0.6545560056E+01      0.1603092085E+02
          0                 5           2             4    7     1      -0.4722853877E-02       4    7    1        -0.2677866687E+00      0.6559456696E+00
          0                 6           1             4    7     1       0.5827793805E-04       5    8    1         0.3396558792E-02      0.8320762370E-02

    ------------------------------------------------
       NWT REQUIRED            6 OUTER ITERATIONS 
       AND A TOTAL OF         11 INNER ITERATIONS.
    ------------------------------------------------

 NO OUTPUT CONTROL FOR STRESS PERIOD   45   TIME STEP   23
 
 SOLVING FOR HEAD 
                                                   Max.-Head-Change                         Max.-Flux-Residual
  Residual-Control   Outer-Iter.   Inner-Iter.     Column Row Layer    Maximum-Head-Change  Column Row Layer    Maximum-Flux-Residual          L2-NORM 
          0                 1           2             5    8     1       0.2793170958E+00       5    8    1         0.1527505371E+02      0.3495126724E+02
          0                 2           2             5    8     1      -0.2720082652E-01       5    8    1        -0.1529191558E+01      0.3499618479E+01
          0                 3           2             5    8     1       0.1357667620E-02       5    8    1         0.7904819811E-01      0.1917533497E+00
          0                 4           2             4    7     1      -0.4730059257E-02       5    8    1        -0.2705038035E+00      0.6640464625E+00
          0                 5           2             4    7     1       0.5155361180E-02       5    8    1         0.3004510796E+00      0.7359395795E+00
          0                 6           1             4    7     1       0.7582093172E-04       5    8    1         0.4422686489E-02      0.1083500353E-01

    ------------------------------------------------
       NWT REQUIRED            6 OUTER ITERATIONS 
       AND A TOTAL OF         11 INNER ITERATIONS.
    ------------------------------------------------

 NO OUTPUT CONTROL FOR STRESS PERIOD   45   TIME STEP   24
 
 SOLVING FOR HEAD 
                                                   Max.-Head-Change                         Max.-Flux-Residual
  Residual-Control   Outer-Iter.   Inner-Iter.     Column Row Layer    Maximum-Head-Change  Column Row Layer    Maximum-Flux-Residual          L2-NORM 
          0                 1           2             5    8     1       0.2656501150E+00       5    8    1         0.1451446091E+02      0.3357721957E+02
          0                 2           2             5    8     1      -0.1669590974E+00       5    8    1        -0.9221679612E+01      0.2194739381E+02
          0                 3           2             4    7     1       0.8062771984E-01       5    8    1         0.4498092426E+01      0.1096759160E+02
          0                 4           2             4    7     1      -0.3239302805E-02       5    8    1        -0.1857072587E+00      0.4528661108E+00
          0                 5           1             4    7     1       0.3994195221E-04       5    8    1         0.2351741084E-02      0.5741729514E-02

    ------------------------------------------------
       NWT REQUIRED            5 OUTER ITERATIONS 
       AND A TOTAL OF          9 INNER ITERATIONS.
    ------------------------------------------------

 NO OUTPUT CONTROL FOR STRESS PERIOD   45   TIME STEP   25
 
 SOLVING FOR HEAD 
                                                   Max.-Head-Change                         Max.-Flux-Residual
  Residual-Control   Outer-Iter.   Inner-Iter.     Column Row Layer    Maximum-Head-Change  Column Row Layer    Maximum-Flux-Residual          L2-NORM 
          0                 1           2             5    8     1       0.2549969221E+00       5    8    1         0.1392108103E+02      0.3252760060E+02
          0                 2           2             5    8     1      -0.1005253860E+00       5    8    1        -0.5561423490E+01      0.1311389711E+02
          0                 3           2             4    7     1      -0.1698318054E+01       4    7    1        -0.9113176782E+02      0.2231584744E+03
          0                 4           2             4    7     1       0.1156491144E+00       4    7    1         0.6379189152E+01      0.1562319831E+02
          0                 5           2             4    7     1      -0.4602955606E-02       4    7    1        -0.2609801395E+00      0.6392625868E+00
          0                 6           1             4    7     1       0.5679844920E-04       5    8    1         0.3310142786E-02      0.8109141541E-02

    ------------------------------------------------
       NWT REQUIRED            6 OUTER ITERATIONS 
       AND A TOTAL OF         11 INNER ITERATIONS.
    ------------------------------------------------

 NO OUTPUT CONTROL FOR STRESS PERIOD   45   TIME STEP   26
 
 SOLVING FOR HEAD 
                                                   Max.-Head-Change                         Max.-Flux-Residual
  Residual-Control   Outer-Iter.   Inner-Iter.     Column Row Layer    Maximum-Head-Change  Column Row Layer    Maximum-Flux-Residual          L2-NORM 
          0                 1           2             5    8     1       0.2946037058E+00       5    8    1         0.1610094615E+02      0.3709157563E+02
          0                 2           2             5    8     1      -0.2868766460E-01       5    8    1        -0.1611771611E+01      0.3713578242E+01
          0                 3           2             5    8     1       0.1474265500E-02       5    8    1         0.8569795119E-01      0.2075143259E+00
          0                 4           2             4    7     1      -0.1026348526E-01       5    8    1        -0.5842419045E+00      0.1436138562E+01
          0                 5           2             4    7     1       0.1058818996E-01       5    8    1         0.6170199807E+00      0.1511392635E+01
          0                 6           2             4    7     1       0.1557222674E-03       5    8    1         0.9082687873E-02      0.2225189541E-01
          0                 7           1             4    7     1       0.2288686312E-05       5    8    1         0.1334890198E-03      0.3270125134E-03

    ------------------------------------------------
       NWT REQUIRED            7 OUTER ITERATIONS 
       AND A TOTAL OF         13 INNER ITERATIONS.
    ------------------------------------------------

 NO OUTPUT CONTROL FOR STRESS PERIOD   45   TIME STEP   27
 
 SOLVING FOR HEAD 
                                                   Max.-Head-Change                         Max.-Flux-Residual
  Residual-Control   Outer-Iter.   Inner-Iter.     Column Row Layer    Maximum-Head-Change  Column Row Layer    Maximum-Flux-Residual          L2-NORM 
          0                 1           2             5    8     1       0.2803622838E+00       5    8    1         0.1530874654E+02      0.3565962305E+02
          0                 2           2             5    8     1      -0.1612088896E+00       5    8    1        -0.8905600861E+01      0.2118328937E+02
          0                 3           2             4    7     1       0.8022379680E-01       5    8    1         0.4475967905E+01      0.1091342146E+02
          0                 4           2             4    7     1      -0.3223230899E-02       5    8    1        -0.1848040989E+00      0.4506538924E+00
          0                 5           1             4    7     1       0.3974377914E-04       5    8    1         0.2340414944E-02      0.5713664276E-02

    ------------------------------------------------
       NWT REQUIRED            5 OUTER ITERATIONS 
       AND A TOTAL OF          9 INNER ITERATIONS.
    ------------------------------------------------

 NO OUTPUT CONTROL FOR STRESS PERIOD   45   TIME STEP   28
 
 SOLVING FOR HEAD 
                                                   Max.-Head-Change                         Max.-Flux-Residual
  Residual-Control   Outer-Iter.   Inner-Iter.     Column Row Layer    Maximum-Head-Change  Column Row Layer    Maximum-Flux-Residual          L2-NORM 
          0                 1           2             5    8     1       0.2689522444E+00       5    8    1         0.1467370899E+02      0.3452961269E+02
          0                 2           2             5    8     1      -0.1026582243E+00       5    8    1        -0.5679326190E+01      0.1341244914E+02
          0                 3           2             4    7     1      -0.1511474878E+01       4    7    1        -0.8110319690E+02      0.1985932987E+03
          0                 4           2             4    7     1       0.1029272357E+00       4    7    1         0.5677287323E+01      0.1390360104E+02
          0                 5           2             4    7     1      -0.4096603961E-02       4    7    1        -0.2322640780E+00      0.5689002783E+00
          0                 6           1             4    7     1       0.5055030460E-04       5    8    1         0.2945729482E-02      0.7216590490E-02

    ------------------------------------------------
       NWT REQUIRED            6 OUTER ITERATIONS 
       AND A TOTAL OF         11 INNER ITERATIONS.
    ------------------------------------------------

 NO OUTPUT CONTROL FOR STRESS PERIOD   45   TIME STEP   29
 
 SOLVING FOR HEAD 
                                                   Max.-Head-Change                         Max.-Flux-Residual
  Residual-Control   Outer-Iter.   Inner-Iter.     Column Row Layer    Maximum-Head-Change  Column Row Layer    Maximum-Flux-Residual          L2-NORM 
          0                 1           2             5    8     1       0.3026570637E+00       5    8    1         0.1652807442E+02      0.3840823387E+02
          0                 2           2             5    8     1      -0.2947095264E-01       5    8    1        -0.1654478569E+01      0.3845225049E+01
          0                 3           2             5    8     1       0.1537714284E-02       5    8    1         0.8925997535E-01      0.2170740875E+00
          0                 4           2             4    7     1      -0.1768848422E-01       5    8    1        -0.1005108444E+01      0.2471987282E+01
          0                 5           2             4    7     1       0.1789039959E-01       5    6    1         0.1042496613E+01      0.2553621714E+01
          0                 6           2             4    7     1       0.2631162456E-03       5    8    1         0.1534581428E-01      0.3759642539E-01
          0                 7           1             4    7     1       0.3867080533E-05       5    8    1         0.2255387139E-03      0.5525140946E-03

    ------------------------------------------------
       NWT REQUIRED            7 OUTER ITERATIONS 
       AND A TOTAL OF         13 INNER ITERATIONS.
    ------------------------------------------------

 NO OUTPUT CONTROL FOR STRESS PERIOD   45   TIME STEP   30



 STREAM LISTING     PERIOD     45   STEP       30

 LAYER ROW COL. STREAM  RCH.  FLOW INTO     FLOW TO   FLOW OUT OF   OVRLND.     DIRECT     STREAM       STREAM     STREAM     STREAM   STREAMBED  STREAMBED
                SEG.NO.  NO.  STRM. RCH.    AQUIFER    STRM. RCH.    RUNOFF     PRECIP       ET          HEAD       DEPTH      WIDTH   CONDCTNC.   GRADIENT

   1    1    1     1     1    2.7749E+01  2.5751E-01   2.7492E+01  0.000E+00  0.000E+00  0.000E+00  1.09427E+03  1.218E+00  1.357E+01  6.105E-02  1.406E+00
   1    2    2     1     2    2.7492E+01  3.9832E-01   2.7093E+01  0.000E+00  0.000E+00  0.000E+00  1.08927E+03  1.213E+00  1.351E+01  9.454E-02  1.404E+00
   1    3    3     1     3    2.7093E+01  3.3923E-01   2.6754E+01  0.000E+00  0.000E+00  0.000E+00  1.08363E+03  1.208E+00  1.344E+01  8.062E-02  1.403E+00
   1    3    4     1     4    2.6754E+01  3.1200E-01   2.6442E+01  0.000E+00  0.000E+00  0.000E+00  1.07861E+03  1.203E+00  1.337E+01  7.422E-02  1.401E+00
   1    4    5     2     1    2.4442E+01  3.2655E-01   2.4116E+01  0.000E+00  0.000E+00  0.000E+00  1.07312E+03  1.187E+00  1.200E+01  7.800E-02  1.396E+00
   1    5    6     2     2    2.4116E+01  2.5068E-01   2.3865E+01  0.000E+00  0.000E+00  0.000E+00  1.06769E+03  1.178E+00  1.200E+01  6.000E-02  1.393E+00
   1    6    6     2     3    2.3865E+01  2.5024E-01   2.3615E+01  0.000E+00  0.000E+00  0.000E+00  1.06296E+03  1.171E+00  1.200E+01  6.000E-02  1.390E+00
   1    7    6     2     4    2.3615E+01  2.4979E-01   2.3365E+01  0.000E+00  0.000E+00  0.000E+00  1.05824E+03  1.163E+00  1.200E+01  6.000E-02  1.388E+00
   1    8    6     2     5    2.3365E+01  2.4935E-01   2.3115E+01  0.000E+00  0.000E+00  0.000E+00  1.05351E+03  1.156E+00  1.200E+01  6.000E-02  1.385E+00
   1    3    5     3     1    2.0000E+00  2.8252E-01   1.7175E+00  0.000E+00  0.000E+00  0.000E+00  1.07555E+03  1.909E+00  9.636E+00  7.227E-02  1.955E+00
   1    3    6     3     2    1.7175E+00  2.4905E-01   1.4684E+00  0.000E+00  0.000E+00  0.000E+00  1.07264E+03  1.727E+00  8.909E+00  6.682E-02  1.864E+00
   1    3    7     3     3    1.4684E+00  1.9718E-01   1.2712E+00  0.000E+00  0.000E+00  0.000E+00  1.06987E+03  1.555E+00  8.218E+00  5.547E-02  1.777E+00
   1    4    8     3     4    1.2712E+00  2.2567E-01   1.0456E+00  0.000E+00  0.000E+00  0.000E+00  1.06682E+03  1.364E+00  7.455E+00  6.709E-02  1.682E+00
   1    5    8     3     5    1.0456E+00  1.5790E-01   8.8768E-01  0.000E+00  0.000E+00  0.000E+00  1.06362E+03  1.164E+00  6.655E+00  4.991E-02  1.582E+00
   1    6    8     3     6    8.8768E-01  5.5980E-02   8.3170E-01  0.000E+00  0.000E+00  0.000E+00  1.06158E+03  1.036E+00  6.145E+00  1.844E-02  1.518E+00
   1    5   10     4     1    1.0000E+01  9.0919E-02   9.9091E+00  0.000E+00  0.000E+00  0.000E+00  1.07836E+03  6.368E-01  1.000E+01  2.500E-02  1.212E+00
   1    5    9     4     2    9.9091E+00  1.8158E-01   9.7275E+00  0.000E+00  0.000E+00  0.000E+00  1.07154E+03  6.315E-01  1.000E+01  5.000E-02  1.211E+00
   1    6    8     4     3    9.7275E+00  1.2689E-01   9.6006E+00  0.000E+00  0.000E+00  0.000E+00  1.06381E+03  6.256E-01  1.000E+01  3.500E-02  1.209E+00
   1    6    8     5     1    1.0432E+01  2.2686E-01   1.0205E+01  0.000E+00  0.000E+00  0.000E+00  1.05868E+03  6.790E-01  1.542E+01  6.166E-02  1.226E+00
   1    7    7     5     2    1.0205E+01  2.7894E-01   9.9265E+00  0.000E+00  0.000E+00  0.000E+00  1.05417E+03  6.732E-01  1.519E+01  7.594E-02  1.224E+00
   1    8    7     5     3    9.9265E+00  1.9221E-01   9.7343E+00  0.000E+00  0.000E+00  0.000E+00  1.04992E+03  6.676E-01  1.497E+01  5.241E-02  1.223E+00
   1    8    6     5     4    9.7343E+00  1.3577E-01   9.5985E+00  0.000E+00  0.000E+00  0.000E+00  1.04691E+03  6.637E-01  1.482E+01  3.706E-02  1.221E+00
   1    9    6     6     1    2.6355E+01  2.5540E-01   2.6100E+01  0.000E+00  0.000E+00  0.000E+00  1.04398E+03  1.257E+00  1.200E+01  6.000E-02  1.419E+00
   1   10    7     6     2    2.6100E+01  2.5496E-01   2.5845E+01  0.000E+00  0.000E+00  0.000E+00  1.03943E+03  1.249E+00  1.200E+01  6.000E-02  1.416E+00
   1   11    7     6     3    2.5845E+01  2.5452E-01   2.5590E+01  0.000E+00  0.000E+00  0.000E+00  1.03488E+03  1.242E+00  1.200E+01  6.000E-02  1.414E+00
   1   12    7     6     4    2.5590E+01  2.5407E-01   2.5336E+01  0.000E+00  0.000E+00  0.000E+00  1.03033E+03  1.235E+00  1.200E+01  6.000E-02  1.412E+00
   1   13    7     6     5    2.5336E+01  5.1887E-03   2.5331E+01  0.000E+00  0.000E+00  0.000E+00  1.02714E+03  1.231E+00  1.200E+01  2.400E-02  7.207E-02
   1   14    9     7     1    1.5000E+02  1.3530E+00   1.4865E+02  0.000E+00  0.000E+00  0.000E+00  1.03987E+03  2.288E+00  5.529E+01  5.593E-01  8.064E-01
   1   13    8     7     2    1.4865E+02  1.8818E+00   1.4677E+02  0.000E+00  0.000E+00  0.000E+00  1.03478E+03  2.279E+00  5.526E+01  6.148E-01  1.020E+00
   1   13    7     7     3    1.4677E+02  1.5444E+00   1.4522E+02  0.000E+00  0.000E+00  0.000E+00  1.02969E+03  2.270E+00  5.521E+01  5.584E-01  9.219E-01
   1   13    6     8     1    1.7055E+02  9.8289E-01   1.6957E+02  0.000E+00  0.000E+00  0.000E+00  1.02483E+03  2.953E+00  4.281E+01  4.363E-01  7.510E-01
   1   13    5     8     2    1.6957E+02  2.2357E-01   1.6935E+02  0.000E+00  0.000E+00  0.000E+00  1.01857E+03  2.949E+00  4.276E+01  4.357E-01  1.710E-01
   1   13    4     8     3    1.6935E+02 -2.1471E+00   1.7149E+02  0.000E+00  0.000E+00  0.000E+00  1.01233E+03  2.955E+00  4.285E+01  4.366E+00 -1.639E-01
   1   13    3     8     4    1.7149E+02 -3.4080E+00   1.7490E+02  0.000E+00  0.000E+00  0.000E+00  1.00610E+03  2.973E+00  4.311E+01  4.393E+00 -2.586E-01
   1   13    2     8     5    1.7490E+02 -2.3444E+00   1.7724E+02  0.000E+00  0.000E+00  0.000E+00  9.99866E+02  2.991E+00  4.337E+01  4.420E+00 -1.768E-01
   1   13    1     8     6    1.7724E+02 -1.8534E+00   1.7910E+02  0.000E+00  0.000E+00  0.000E+00  9.94880E+02  3.005E+00  4.357E+01  2.664E+00 -2.319E-01
   1    8    6     9     1    6.3591E+00  0.0000E+00   6.3591E+00  0.000E+00  0.000E+00  0.000E+00  1.08048E+03  1.727E+00  4.000E+00  0.000E+00  1.576E+00
   1    8    5     9     2    6.3591E+00  0.0000E+00   6.3591E+00  0.000E+00  0.000E+00  0.000E+00  1.07998E+03  1.727E+00  4.000E+00  0.000E+00  1.576E+00





UNSATURATED ZONE PACKAGE VOLUMETRIC BUDGET FOR  TIME STEP    30 STRESS PERIOD   45
  ------------------------------------------------------------------------------



     CUMULATIVE VOLUMES      L**3       RATES FOR THIS TIME STEP      L**3/T
     ------------------                 ------------------------

           IN:                                      IN:
           ---                                      ---
        INFILTRATION =  2384538053.9808          INFILTRATION =           7.2067

          OUT:                                     OUT:
          ----                                     ----
              UZF ET =  1666461588.3585                UZF ET =          49.5691
        UZF RECHARGE =    54083381.9624          UZF RECHARGE =       0.0000E+00

            IN - OUT =   663993083.6599              IN - OUT =         -42.3624

          STORAGE:                                 STORAGE:
          --------                                 --------
      STORAGE CHANGE =   665660437.3959        STORAGE CHANGE =         -42.3631

 PERCENT DISCREPANCY IS DIFFERENCE BETWEEN IN-OUT MINUS CHANGE IN STORAGE
 DIVIDED BY THE AVERAGE OF IN AND OUT TIMES 100

 PERCENT DISCREPANCY =          -0.02     PERCENT DISCREPANCY =           0.00






1
  VOLUMETRIC BUDGET FOR AGRICULTURAL FIELDS AT  END OF TIME STEP   30, STRESS PERIOD  45
  ------------------------------------------------------------------------------

     CUMULATIVE VOLUMES      L**3       RATES FOR THIS TIME STEP      L**3/T
     ------------------                 ------------------------

           IN:                                      IN:
           ---                                      ---
           AG WELLS      =  1105399296.0000             AG WELLS      =           0.0000
      DIVERSION SEGMENTS =  1181031552.0000        DIVERSION SEGMENTS =           6.3591
           GW IRRIGATION =           0.0000             GW IRRIGATION =           0.0000
           SW IRRIGATION =           0.0000             SW IRRIGATION =           0.0000
        SYSTEM LOSSES GW =           0.0000          SYSTEM LOSSES GW =           0.0000
        SYSTEM LOSSES SW =           0.0000          SYSTEM LOSSES SW =           0.0000

                TOTAL IN =  2286430720.0000                  TOTAL IN =           6.3591

          OUT:                                     OUT:
          ----                                     ----
           AG WELLS      =           0.0000             AG WELLS      =           0.0000
      DIVERSION SEGMENTS =           0.0000        DIVERSION SEGMENTS =           0.0000
           GW IRRIGATION =  1105399296.0000             GW IRRIGATION =           0.0000
           SW IRRIGATION =  1181053056.0000             SW IRRIGATION =           6.3592
        SYSTEM LOSSES GW =           0.0000          SYSTEM LOSSES GW =           0.0000
        SYSTEM LOSSES SW =           0.0000          SYSTEM LOSSES SW =           0.0000

               TOTAL OUT =  2286452224.0000                 TOTAL OUT =           6.3592

                IN - OUT =      -21504.0000                  IN - OUT =      -1.2684E-04

     PERCENT DISCREPANCY =          -0.00         PERCENT DISCREPANCY =          -0.00



1
  VOLUMETRIC BUDGET FOR ENTIRE MODEL AT END OF TIME STEP   30, STRESS PERIOD  45
  ------------------------------------------------------------------------------

     CUMULATIVE VOLUMES      L**3       RATES FOR THIS TIME STEP      L**3/T
     ------------------                 ------------------------

           IN:                                      IN:
           ---                                      ---
             STORAGE     =  1514107520.0000               STORAGE     =          75.7377
       CONSTANT HEAD     =           0.0000         CONSTANT HEAD     =           0.0000
     HEAD DEP BOUNDS     =    33129288.0000       HEAD DEP BOUNDS     =           0.2869
      STREAM LEAKAGE     =  1396459648.0000        STREAM LEAKAGE     =          12.0449
        UZF RECHARGE     =    54083364.0000          UZF RECHARGE     =           0.0000
               GW ET     =           0.0000                 GW ET     =           0.0000
     SURFACE LEAKAGE     =           0.0000       SURFACE LEAKAGE     =           0.0000
           AG WELLS      =           0.0000             AG WELLS      =           0.0000

                TOTAL IN =  2997779712.0000                  TOTAL IN =          88.0695

          OUT:                                     OUT:
          ----                                     ----
             STORAGE     =   621853952.0000               STORAGE     =          78.0288
       CONSTANT HEAD     =           0.0000         CONSTANT HEAD     =           0.0000
     HEAD DEP BOUNDS     =    33667808.0000       HEAD DEP BOUNDS     =           0.2879
      STREAM LEAKAGE     =  1233724288.0000        STREAM LEAKAGE     =           9.7528
        UZF RECHARGE     =           0.0000          UZF RECHARGE     =           0.0000
               GW ET     =     3143644.7500                 GW ET     =           0.0000
     SURFACE LEAKAGE     =           0.0000       SURFACE LEAKAGE     =           0.0000
           AG WELLS      =  1105399296.0000             AG WELLS      =           0.0000

               TOTAL OUT =  2997789184.0000                 TOTAL OUT =          88.0695

                IN - OUT =       -9472.0000                  IN - OUT =       2.2888E-05

     PERCENT DISCREPANCY =          -0.00         PERCENT DISCREPANCY =           0.00






         TIME SUMMARY AT END OF TIME STEP   30 IN STRESS PERIOD   45
                    SECONDS     MINUTES      HOURS       DAYS        YEARS
                    -----------------------------------------------------------
   TIME STEP LENGTH  87667.      1461.1      24.352      1.0147     2.77799E-03
 STRESS PERIOD TIME 2.63000E+06  43833.      730.56      30.440     8.33397E-02
         TOTAL TIME 1.15805E+08 1.93009E+06  32168.      1340.3      3.6696    
1
1
                            STRESS PERIOD NO.   46, LENGTH =   2630000.    
                            -----------------------------------------------

                              NUMBER OF TIME STEPS =    30

                               MULTIPLIER FOR DELT =     1.000

                            INITIAL TIME STEP SIZE =   87666.66    

 REUSING NON-PARAMETER GHB CELLS FROM LAST STRESS PERIOD

      2 GHB CELLS

 REUSING STREAM SEGMENT DATA FROM LAST STRESS PERIOD



            AREAL INFILTRATION RATE
 READING ON UNIT   19 WITH FORMAT: (FREE)              

            1           2           3           4           5           6           7           8           9          10
 ........................................................................................................................
   1   1.0000E-10  2.0000E-10   0.000       0.000       0.000       0.000       0.000       0.000       0.000       0.000    
   2   2.0000E-10  1.0000E-10  2.0000E-10   0.000       0.000      8.0000E-10  8.0000E-10  5.0000E-10   0.000       0.000    
   3    0.000      5.0000E-10  1.0000E-10  1.0000E-10  8.0000E-10  8.0000E-10  5.0000E-10  5.0000E-10   0.000       0.000    
   4   8.0000E-10  5.0000E-10  1.0000E-10  1.0000E-10  1.0000E-10  1.0000E-10  1.0000E-10  1.0000E-10  2.0000E-10   0.000    
   5   8.0000E-10  5.0000E-10  1.0000E-10  1.0000E-10  1.0000E-10  1.0000E-10  1.0000E-10  1.0000E-10  1.0000E-10  1.0000E-10
   6   8.0000E-10  5.0000E-10  5.0000E-10  2.0000E-10  2.0000E-10  1.0000E-10  1.0000E-10  1.0000E-10  1.0000E-10  5.0000E-10
   7   8.0000E-10  5.0000E-10  5.0000E-10  2.0000E-10  2.0000E-10  1.0000E-10  1.0000E-10  2.0000E-10  2.0000E-10   0.000    
   8    0.000      5.0000E-10  5.0000E-10  2.0000E-10  2.0000E-10  1.0000E-10  1.0000E-10  2.0000E-10  5.0000E-10   0.000    
   9    0.000      5.0000E-10  5.0000E-10  2.0000E-10  2.0000E-10  1.0000E-10  1.0000E-10  2.0000E-10  5.0000E-10   0.000    
  10    0.000      5.0000E-10  5.0000E-10  2.0000E-10  2.0000E-10  1.0000E-10  1.0000E-10  2.0000E-10  5.0000E-10  8.0000E-10
  11    0.000      1.0000E-10  1.0000E-10  1.0000E-10  1.0000E-10  1.0000E-10  1.0000E-10  2.0000E-10  5.0000E-10   0.000    
  12   1.0000E-10  1.0000E-10  1.0000E-10  1.0000E-10  1.0000E-10  1.0000E-10  1.0000E-10  1.0000E-10  2.0000E-10   0.000    
  13   1.0000E-10  1.0000E-10  2.0000E-10  2.0000E-10  2.0000E-10  2.0000E-10  2.0000E-10  1.0000E-10  1.0000E-10   0.000    
  14    0.000      2.0000E-10  5.0000E-10  5.0000E-10  5.0000E-10  5.0000E-10  5.0000E-10  2.0000E-10  1.0000E-10   0.000    
  15    0.000       0.000      8.0000E-10  8.0000E-10  8.0000E-10  8.0000E-10   0.000       0.000       0.000       0.000    

                  ET RATE =  7.500000E-08

 USING ET EXTINCTION DEPTH FROM PREVIOUS STRESS PERIOD. CURRENT PERIOD IS:      46

 USING EXTINCTION WATER CONTENT FROM PREVIOUS STRESS PERIOD. CURRENT PERIOD IS:      46

 USING AIR ENTRY PRESSURE FROM PREVIOUS STRESS PERIOD. CURRENT PERIOD IS:      46

 USING ROOT PRESSURE HEAD FROM PREVIOUS STRESS PERIOD. CURRENT PERIOD IS:      46

 USING ROOT ACTIVITY FROM PREVIOUS STRESS PERIOD. CURRENT PERIOD IS:      46

 PROCESSING AG STRESS PERIOD DATA

 READING AG STRESS PERIOD DATA

 READING IRRIGATION SEGMENT

 READING IRRIGATION WELL

 READING SUPPLEMENTAL WELL

 END PROCESSING AG STRESS PERIOD DATA OPTIONS
 
 SOLVING FOR HEAD 
                                                   Max.-Head-Change                         Max.-Flux-Residual
  Residual-Control   Outer-Iter.   Inner-Iter.     Column Row Layer    Maximum-Head-Change  Column Row Layer    Maximum-Flux-Residual          L2-NORM 
          0                 1           2             5    8     1       0.2882508174E+00       5    8    1         0.1572717362E+02      0.3695522121E+02
          0                 2           2             5    8     1      -0.3802277186E-01       5    8    1        -0.2122414108E+01      0.4894458033E+01
          0                 3           2             5    8     1       0.1230261652E-01       5    8    1         0.6983474973E+00      0.1666656297E+01
          0                 4           2             5    8     1      -0.4895330278E-03       5    8    1        -0.2856247805E-01      0.6816804693E-01
          0                 5           1             5    8     1       0.6036153876E-05       5    8    1         0.3619745901E-03      0.8641926029E-03

    ------------------------------------------------
       NWT REQUIRED            5 OUTER ITERATIONS 
       AND A TOTAL OF          9 INNER ITERATIONS.
    ------------------------------------------------

 NO OUTPUT CONTROL FOR STRESS PERIOD   46   TIME STEP    1
 
 SOLVING FOR HEAD 
                                                   Max.-Head-Change                         Max.-Flux-Residual
  Residual-Control   Outer-Iter.   Inner-Iter.     Column Row Layer    Maximum-Head-Change  Column Row Layer    Maximum-Flux-Residual          L2-NORM 
          0                 1           2             5    8     1       0.2747762718E+00       5    8    1         0.1497859602E+02      0.3559902110E+02
          0                 2           2             5    6     1      -0.2640142287E-01       5    6    1        -0.1475804001E+01      0.3351481265E+01
          0                 3           2             5    8     1      -0.1923311272E-01       5    8    1        -0.1068131262E+01      0.1929249138E+01
          0                 4           2             4    7     1       0.1479586810E-01       4    7    1         0.8162376545E+00      0.1908670500E+01
          0                 5           2             4    7     1      -0.6490617417E+00       4    7    1        -0.3679772316E+02      0.9010124688E+02
          0                 6           2             4    7     1       0.5996057182E-01       5    6    1         0.3494307692E+01      0.8526164591E+01
          0                 7           2             4    7     1       0.8812839867E-03       4    7    1         0.5134921923E-01      0.1252850232E+00
          0                 8           1             4    7     1       0.1294438783E-04       4    7    1         0.7541105149E-03      0.1843099039E-02

    ------------------------------------------------
       NWT REQUIRED            8 OUTER ITERATIONS 
       AND A TOTAL OF         15 INNER ITERATIONS.
    ------------------------------------------------

 NO OUTPUT CONTROL FOR STRESS PERIOD   46   TIME STEP    2
 
 SOLVING FOR HEAD 
                                                   Max.-Head-Change                         Max.-Flux-Residual
  Residual-Control   Outer-Iter.   Inner-Iter.     Column Row Layer    Maximum-Head-Change  Column Row Layer    Maximum-Flux-Residual          L2-NORM 
          0                 1           2             5    8     1       0.2803926893E+00       5    8    1         0.1528415429E+02      0.3633367638E+02
          0                 2           2             5    8     1      -0.2727343044E-01       5    8    1        -0.1528337110E+01      0.3633402881E+01
          0                 3           2             4    7     1      -0.3377013969E-01       4    7    1        -0.1812734299E+01      0.4398650977E+01
          0                 4           2             4    7     1       0.3629463638E-01       4    7    1         0.2001916813E+01      0.4899368756E+01
          0                 5           2             4    7     1      -0.1444547807E-02       4    7    1        -0.8190074400E-01      0.2004917125E+00
          0                 6           1             4    7     1       0.1782511204E-04       4    7    1         0.1038733353E-02      0.2545359768E-02

    ------------------------------------------------
       NWT REQUIRED            6 OUTER ITERATIONS 
       AND A TOTAL OF         11 INNER ITERATIONS.
    ------------------------------------------------

 NO OUTPUT CONTROL FOR STRESS PERIOD   46   TIME STEP    3
 
 SOLVING FOR HEAD 
                                                   Max.-Head-Change                         Max.-Flux-Residual
  Residual-Control   Outer-Iter.   Inner-Iter.     Column Row Layer    Maximum-Head-Change  Column Row Layer    Maximum-Flux-Residual          L2-NORM 
          0                 1           2             5    8     1       0.8237725645E+00       5    8    1         0.4525330025E+02      0.5534420382E+02
          0                 2           2             5    8     1       0.4706824503E+00       5    8    1         0.2598477155E+02      0.2617927532E+02
          0                 3           2             5    8     1       0.2689149638E+00       5    8    1         0.1483412171E+02      0.1483589106E+02
          0                 4           2             5    8     1       0.1536363587E+00       5    8    1         0.8475969333E+01      0.8475990808E+01
          0                 5           2             5    8     1       0.8777432823E-01       5    8    1         0.4842524367E+01      0.4842536649E+01
          0                 6           2             5    8     1       0.5014618826E-01       5    8    1         0.2766606389E+01      0.2766613320E+01
          0                 7           2             5    8     1       0.2864880867E-01       5    8    1         0.1580589586E+01      0.1580593535E+01
          0                 8           2             5    8     1       0.1636719268E-01       5    8    1         0.9030015331E+00      0.9030037860E+00
          0                 9           2             5    8     1       0.9350638016E-02       5    8    1         0.5158893243E+00      0.5158906101E+00
          0                10           1             5    8     1       0.5342050191E-02       5    8    1         0.2947296549E+00      0.2947303889E+00
                                                   Max.-Head-Change                         Max.-Flux-Residual
  Residual-Control   Outer-Iter.   Inner-Iter.     Column Row Layer    Maximum-Head-Change  Column Row Layer    Maximum-Flux-Residual          L2-NORM 
          0                11           1             5    8     1       0.3051929483E-02       5    8    1         0.1683800747E+00      0.1683804937E+00
          0                12           1             5    8     1       0.1743576141E-02       5    8    1         0.9619606628E-01      0.9619630556E-01
          0                13           1             5    8     1       0.9961099515E-03       5    8    1         0.5495709736E-01      0.5495723399E-01
          0                14           1             5    8     1       0.5690803692E-03       5    8    1         0.3139714653E-01      0.3139722455E-01
          0                15           1             5    8     1       0.3251171736E-03       5    8    1         0.1793727750E-01      0.1793732205E-01
          0                16           1             5    8     1       0.1857403268E-03       5    8    1         0.1024761611E-01      0.1024764218E-01
          0                17           1             5    8     1       0.1061139529E-03       5    8    1         0.5854491143E-02      0.5854506368E-02
          0                18           1             5    8     1       0.6062318875E-04       5    8    1         0.3344686751E-02      0.3344695372E-02

    ------------------------------------------------
       NWT REQUIRED           18 OUTER ITERATIONS 
       AND A TOTAL OF         27 INNER ITERATIONS.
    ------------------------------------------------

 NO OUTPUT CONTROL FOR STRESS PERIOD   46   TIME STEP    4
 
 SOLVING FOR HEAD 
                                                   Max.-Head-Change                         Max.-Flux-Residual
  Residual-Control   Outer-Iter.   Inner-Iter.     Column Row Layer    Maximum-Head-Change  Column Row Layer    Maximum-Flux-Residual          L2-NORM 
          0                 1           2             5    8     1       0.5170021891E+00       5    8    1         0.2824740898E+02      0.4235189054E+02
          0                 2           2             5    8     1       0.1430835433E+00       5    8    1         0.7922857782E+01      0.8527981987E+01
          0                 3           2             5    8     1       0.3959852816E-01       5    8    1         0.2182836531E+01      0.2194208670E+01
          0                 4           2             5    8     1       0.1095918819E-01       5    8    1         0.6047011119E+00      0.6047604923E+00
          0                 5           1             5    8     1       0.3033049018E-02       5    8    1         0.1673403193E+00      0.1673426120E+00
          0                 6           1             5    8     1       0.8394232855E-03       5    8    1         0.4631306975E-01      0.4631348479E-01
          0                 7           1             5    8     1       0.2323179362E-03       5    8    1         0.1281759233E-01      0.1281771027E-01
          0                 8           1             5    8     1       0.6429608205E-04       5    8    1         0.3547380454E-02      0.3547412982E-02

    ------------------------------------------------
       NWT REQUIRED            8 OUTER ITERATIONS 
       AND A TOTAL OF         12 INNER ITERATIONS.
    ------------------------------------------------

 NO OUTPUT CONTROL FOR STRESS PERIOD   46   TIME STEP    5
 
 SOLVING FOR HEAD 
                                                   Max.-Head-Change                         Max.-Flux-Residual
  Residual-Control   Outer-Iter.   Inner-Iter.     Column Row Layer    Maximum-Head-Change  Column Row Layer    Maximum-Flux-Residual          L2-NORM 
          0                 1           2             5    7     1       0.2455996281E+00       5    6    1         0.1322763438E+02      0.3162307139E+02
          0                 2           2             5    8     1       0.3685361119E-01       5    8    1         0.2063743421E+01      0.3709691281E+01
          0                 3           2             5    8     1       0.1019938145E-01       5    8    1         0.5606269510E+00      0.6009415404E+00
          0                 4           1             5    8     1       0.2822749334E-02       5    8    1         0.1558169605E+00      0.1560522355E+00
          0                 5           1             5    8     1       0.7812159174E-03       5    8    1         0.4309428704E-01      0.4309654526E-01
          0                 6           1             5    8     1       0.2162071229E-03       5    8    1         0.1192631628E-01      0.1192704726E-01
          0                 7           1             5    8     1       0.5983688102E-04       5    8    1         0.3300691198E-02      0.3300894993E-02

    ------------------------------------------------
       NWT REQUIRED            7 OUTER ITERATIONS 
       AND A TOTAL OF         10 INNER ITERATIONS.
    ------------------------------------------------

 NO OUTPUT CONTROL FOR STRESS PERIOD   46   TIME STEP    6
 
 SOLVING FOR HEAD 
                                                   Max.-Head-Change                         Max.-Flux-Residual
  Residual-Control   Outer-Iter.   Inner-Iter.     Column Row Layer    Maximum-Head-Change  Column Row Layer    Maximum-Flux-Residual          L2-NORM 
          0                 1           2             5    8     1       0.3173857975E+00       5    8    1         0.1721612756E+02      0.3446863836E+02
          0                 2           2             5    8     1       0.1447076922E+00       5    8    1         0.8069096529E+01      0.1056445071E+02
          0                 3           2             5    8     1       0.1149109053E+00       5    8    1         0.6280654007E+01      0.7724420653E+01
          0                 4           2             5    8     1       0.6455850813E-01       5    8    1         0.3564732682E+01      0.3569230761E+01
          0                 5           2             5    8     1       0.3626951309E-01       5    8    1         0.2001270008E+01      0.2001287237E+01
          0                 6           2             5    8     1       0.2037646416E-01       5    8    1         0.1124321447E+01      0.1124332765E+01
          0                 7           2             5    8     1       0.1144762099E-01       5    8    1         0.6316523970E+00      0.6316587768E+00
          0                 8           2             5    8     1       0.6431337130E-02       5    8    1         0.3548663919E+00      0.3548699755E+00
          0                 9           1             5    8     1       0.3613159171E-02       5    8    1         0.1993659967E+00      0.1993680093E+00
          0                10           1             5    8     1       0.2029891342E-02       5    8    1         0.1120048973E+00      0.1120060276E+00
                                                   Max.-Head-Change                         Max.-Flux-Residual
  Residual-Control   Outer-Iter.   Inner-Iter.     Column Row Layer    Maximum-Head-Change  Column Row Layer    Maximum-Flux-Residual          L2-NORM 
          0                11           1             5    8     1       0.1140403182E-02       5    8    1         0.6292493446E-01      0.6292556932E-01
          0                12           1             5    8     1       0.6406841963E-03       5    8    1         0.3535154831E-01      0.3535190489E-01
          0                13           1             5    8     1       0.3599395594E-03       5    8    1         0.1986067731E-01      0.1986087760E-01
          0                14           1             5    8     1       0.2022158242E-03       5    8    1         0.1115782748E-01      0.1115793998E-01
          0                15           1             5    8     1       0.1136058482E-03       5    8    1         0.6268522840E-02      0.6268586033E-02
          0                16           1             5    8     1       0.6382432585E-04       5    8    1         0.3521687163E-02      0.3521722682E-02

    ------------------------------------------------
       NWT REQUIRED           16 OUTER ITERATIONS 
       AND A TOTAL OF         24 INNER ITERATIONS.
    ------------------------------------------------

 NO OUTPUT CONTROL FOR STRESS PERIOD   46   TIME STEP    7
 
 SOLVING FOR HEAD 
                                                   Max.-Head-Change                         Max.-Flux-Residual
  Residual-Control   Outer-Iter.   Inner-Iter.     Column Row Layer    Maximum-Head-Change  Column Row Layer    Maximum-Flux-Residual          L2-NORM 
          0                 1           2             5    8     1       0.1361275126E+01       5    8    1         0.7479976026E+02      0.8032648513E+02
          0                 2           2             5    8     1       0.3637394637E+00       5    8    1         0.2010809706E+02      0.2031979120E+02
          0                 3           2             5    8     1       0.6234503001E-01       5    8    1         0.3494971138E+01      0.5319376913E+01
          0                 4           2             5    8     1       0.5151816782E-01       5    8    1         0.2783228049E+01      0.5254233637E+01
          0                 5           2             5    8     1       0.1376812395E-01       5    8    1         0.7623214677E+00      0.7833221540E+00
          0                 6           1             5    8     1       0.3679493864E-02       5    8    1         0.2030301384E+00      0.2030579476E+00
          0                 7           1             5    8     1       0.9833367418E-03       5    8    1         0.5426411028E-01      0.5426681966E-01
          0                 8           1             5    8     1       0.2627947237E-03       5    8    1         0.1450204972E-01      0.1450274004E-01
          0                 9           1             5    8     1       0.7023135817E-04       5    8    1         0.3875644442E-02      0.3875828551E-02

    ------------------------------------------------
       NWT REQUIRED            9 OUTER ITERATIONS 
       AND A TOTAL OF         14 INNER ITERATIONS.
    ------------------------------------------------

 NO OUTPUT CONTROL FOR STRESS PERIOD   46   TIME STEP    8
 
 SOLVING FOR HEAD 
                                                   Max.-Head-Change                         Max.-Flux-Residual
  Residual-Control   Outer-Iter.   Inner-Iter.     Column Row Layer    Maximum-Head-Change  Column Row Layer    Maximum-Flux-Residual          L2-NORM 
          0                 1           2             4    8     1       0.1022426854E+01       4    8    1         0.5543511830E+02      0.7413021050E+02
          0                 2           2             4    8     1       0.5861336859E+00       4    8    1         0.3179484448E+02      0.4117262262E+02
          0                 3           2             4    8     1       0.3007411103E+00       4    8    1         0.1635789114E+02      0.2068259514E+02
          0                 4           2             4    8     1       0.2076687289E+00       4    8    1         0.1121639272E+02      0.1513004033E+02
          0                 5           2             4    8     1       0.1192274827E+00       4    8    1         0.6458549666E+01      0.8536806268E+01
          0                 6           2             4    8     1       0.6842624498E-01       4    8    1         0.3707353082E+01      0.4889838378E+01
          0                 7           2             4    8     1       0.3926265223E-01       4    8    1         0.2127713661E+01      0.2802589822E+01
          0                 8           2             4    8     1       0.2252609573E-01       4    8    1         0.1220867313E+01      0.1606399484E+01
          0                 9           2             4    8     1       0.1292300632E-01       4    8    1         0.7004450423E+00      0.9207775319E+00
          0                10           2             4    8     1       0.7413528580E-02       4    8    1         0.4018382679E+00      0.5277842196E+00
                                                   Max.-Head-Change                         Max.-Flux-Residual
  Residual-Control   Outer-Iter.   Inner-Iter.     Column Row Layer    Maximum-Head-Change  Column Row Layer    Maximum-Flux-Residual          L2-NORM 
          0                11           2             4    8     1       0.4252821892E-02       4    8    1         0.2305220539E+00      0.3025226724E+00
          0                12           2             4    8     1       0.2439631464E-02       4    8    1         0.1322405322E+00      0.1734042600E+00
          0                13           2             4    8     1       0.1399485201E-02       4    8    1         0.7585977596E-01      0.9939451686E-01
          0                14           2             4    8     1       0.8028061983E-03       4    8    1         0.4351666536E-01      0.5697263110E-01
          0                15           2             4    8     1       0.4605238856E-03       4    8    1         0.2496307042E-01      0.3265664076E-01
          0                16           2             4    8     1       0.2641758042E-03       4    8    1         0.1431988207E-01      0.1871880906E-01
          0                17           2             4    8     1       0.1515421945E-03       4    8    1         0.8214484624E-02      0.1072967130E-01
          0                18           1             4    8     1       0.8693086310E-04       4    8    1         0.4712169014E-02      0.6150297272E-02

    ------------------------------------------------
       NWT REQUIRED           18 OUTER ITERATIONS 
       AND A TOTAL OF         35 INNER ITERATIONS.
    ------------------------------------------------

 NO OUTPUT CONTROL FOR STRESS PERIOD   46   TIME STEP    9
 
 SOLVING FOR HEAD 
                                                   Max.-Head-Change                         Max.-Flux-Residual
  Residual-Control   Outer-Iter.   Inner-Iter.     Column Row Layer    Maximum-Head-Change  Column Row Layer    Maximum-Flux-Residual          L2-NORM 
          0                 1           2             5    7     1       0.1043887576E+01       5    7    1         0.5660101618E+02      0.8413880882E+02
          0                 2           2             5    7     1       0.2850105426E+00       5    7    1         0.1549859500E+02      0.2253176465E+02
          0                 3           2             5    7     1       0.4245067890E-01       5    7    1         0.2360069752E+01      0.4424597161E+01
          0                 4           2             5    7     1       0.4684087992E-01       5    7    1         0.2493486252E+01      0.5052126718E+01
          0                 5           2             5    7     1       0.1292442617E-01       5    7    1         0.6969325633E+00      0.1230611614E+01
          0                 6           2             5    7     1       0.3572140164E-02       5    7    1         0.1919550369E+00      0.3568300092E+00
          0                 7           2             4    8     1       0.1021245763E-02       4    8    1         0.5781130959E-01      0.1051925979E+00
          0                 8           2             4    8     1       0.3238844373E-03       4    8    1         0.1833378333E-01      0.3133794177E-01
          0                 9           1             4    8     1       0.1027188624E-03       4    8    1         0.5814380660E-02      0.9428595641E-02
          0                10           1             4    8     1       0.3257605846E-04       4    8    1         0.1843966785E-02      0.2862202279E-02

    ------------------------------------------------
       NWT REQUIRED           10 OUTER ITERATIONS 
       AND A TOTAL OF         18 INNER ITERATIONS.
    ------------------------------------------------

 NO OUTPUT CONTROL FOR STRESS PERIOD   46   TIME STEP   10
 
 SOLVING FOR HEAD 
                                                   Max.-Head-Change                         Max.-Flux-Residual
  Residual-Control   Outer-Iter.   Inner-Iter.     Column Row Layer    Maximum-Head-Change  Column Row Layer    Maximum-Flux-Residual          L2-NORM 
          0                 1           2             4    7     1       0.5636691030E+00       4    7    1         0.3006721346E+02      0.4406370702E+02
          0                 2           2             4    7     1       0.1580300980E+00       4    7    1         0.8419105265E+01      0.1213568992E+02
          0                 3           2             5    8     1      -0.2934499617E-01       5    8    1        -0.1629765834E+01      0.2796524620E+01
          0                 4           2             4    7     1       0.3791291661E-01       4    7    1         0.1992168368E+01      0.4055781099E+01
          0                 5           2             4    7     1       0.1081555449E-01       4    7    1         0.5667271960E+00      0.1234071588E+01
          0                 6           2             4    7     1       0.3095818803E-02       4    7    1         0.1617311507E+00      0.3784671491E+00
          0                 7           2             5    7     1       0.9250527502E-03       5    7    1         0.5178868876E-01      0.1168511484E+00
          0                 8           2             5    7     1       0.2973500134E-03       5    7    1         0.1667602781E-01      0.3628226887E-01
          0                 9           1             5    7     1       0.9538927869E-04       5    7    1         0.5357541733E-02      0.1131822870E-01

    ------------------------------------------------
       NWT REQUIRED            9 OUTER ITERATIONS 
       AND A TOTAL OF         17 INNER ITERATIONS.
    ------------------------------------------------

 NO OUTPUT CONTROL FOR STRESS PERIOD   46   TIME STEP   11
 
 SOLVING FOR HEAD 
                                                   Max.-Head-Change                         Max.-Flux-Residual
  Residual-Control   Outer-Iter.   Inner-Iter.     Column Row Layer    Maximum-Head-Change  Column Row Layer    Maximum-Flux-Residual          L2-NORM 
          0                 1           2             4    7     1       0.2474520725E+00       4    7    1         0.1308481925E+02      0.2359163739E+02
          0                 2           2             4    7     1       0.7024361377E-01       4    7    1         0.3707568950E+01      0.6293926681E+01
          0                 3           2             5    8     1      -0.2926917785E-01       5    8    1        -0.1623635610E+01      0.3042344399E+01
          0                 4           2             4    7     1       0.2916570215E-01       4    7    1         0.1611987095E+01      0.3693670451E+01
          0                 5           2             4    7     1       0.9499725154E-02       4    7    1         0.5252870965E+00      0.1187890174E+01
          0                 6           2             4    7     1       0.3092611634E-02       4    7    1         0.1710793553E+00      0.3821218368E+00
          0                 7           2             4    7     1       0.1006296630E-02       4    7    1         0.5568975113E-01      0.1229340123E+00
          0                 8           2             4    7     1       0.3272826289E-03       4    7    1         0.1811925507E-01      0.3955315444E-01
          0                 9           1             4    7     1       0.1063960926E-03       4    7    1         0.5892543255E-02      0.1272697500E-01
          0                10           1             4    7     1       0.3457348453E-04       4    7    1         0.1915455380E-02      0.4095441530E-02

    ------------------------------------------------
       NWT REQUIRED           10 OUTER ITERATIONS 
       AND A TOTAL OF         18 INNER ITERATIONS.
    ------------------------------------------------

 NO OUTPUT CONTROL FOR STRESS PERIOD   46   TIME STEP   12
 
 SOLVING FOR HEAD 
                                                   Max.-Head-Change                         Max.-Flux-Residual
  Residual-Control   Outer-Iter.   Inner-Iter.     Column Row Layer    Maximum-Head-Change  Column Row Layer    Maximum-Flux-Residual          L2-NORM 
          0                 1           2             4    7     1       0.2409161792E+00       4    7    1         0.1274297002E+02      0.2280316569E+02
          0                 2           2             4    7     1       0.6835968735E-01       4    7    1         0.3609265576E+01      0.6097934009E+01
          0                 3           2             5    8     1      -0.2919210825E-01       5    8    1        -0.1618647850E+01      0.3079532640E+01
          0                 4           2             4    7     1       0.2900875001E-01       4    7    1         0.1603313617E+01      0.3679414241E+01
          0                 5           2             4    7     1       0.9448625204E-02       4    7    1         0.5224602827E+00      0.1183272353E+01
          0                 6           2             4    7     1       0.3075992156E-02       4    7    1         0.1701591548E+00      0.3806270850E+00
          0                 7           2             4    7     1       0.1000896501E-02       4    7    1         0.5539051271E-01      0.1224503805E+00
          0                 8           2             4    7     1       0.3255294684E-03       4    7    1         0.1802203701E-01      0.3939673437E-01
          0                 9           1             4    7     1       0.1058273621E-03       4    7    1         0.5860985078E-02      0.1267640184E-01
          0                10           1             4    7     1       0.3438911454E-04       4    7    1         0.1905218964E-02      0.4079095545E-02

    ------------------------------------------------
       NWT REQUIRED           10 OUTER ITERATIONS 
       AND A TOTAL OF         18 INNER ITERATIONS.
    ------------------------------------------------

 NO OUTPUT CONTROL FOR STRESS PERIOD   46   TIME STEP   13
 
 SOLVING FOR HEAD 
                                                   Max.-Head-Change                         Max.-Flux-Residual
  Residual-Control   Outer-Iter.   Inner-Iter.     Column Row Layer    Maximum-Head-Change  Column Row Layer    Maximum-Flux-Residual          L2-NORM 
          0                 1           2             4    7     1       0.2344582043E+00       4    7    1         0.1240445156E+02      0.2205680823E+02
          0                 2           2             4    7     1       0.6650342097E-01       4    7    1         0.3512208958E+01      0.5910883594E+01
          0                 3           2             5    8     1      -0.2913551960E-01       5    8    1        -0.1614859073E+01      0.3116243263E+01
          0                 4           2             4    7     1       0.2885478286E-01       4    7    1         0.1594791892E+01      0.3665676324E+01
          0                 5           2             4    7     1       0.9398576744E-02       4    7    1         0.5196877714E+00      0.1178822432E+01
          0                 6           2             4    7     1       0.3059737977E-02       4    7    1         0.1692580476E+00      0.3791866714E+00
          0                 7           2             4    7     1       0.9956219010E-03       4    7    1         0.5509789795E-01      0.1219843239E+00
          0                 8           2             4    7     1       0.3238190648E-03       4    7    1         0.1792709242E-01      0.3924599574E-01
          0                 9           1             4    7     1       0.1052730906E-03       4    7    1         0.5830200560E-02      0.1262766447E-01
          0                10           1             4    7     1       0.3420960373E-04       4    7    1         0.1895243952E-02      0.4063342360E-02

    ------------------------------------------------
       NWT REQUIRED           10 OUTER ITERATIONS 
       AND A TOTAL OF         18 INNER ITERATIONS.
    ------------------------------------------------

 NO OUTPUT CONTROL FOR STRESS PERIOD   46   TIME STEP   14
 
 SOLVING FOR HEAD 
                                                   Max.-Head-Change                         Max.-Flux-Residual
  Residual-Control   Outer-Iter.   Inner-Iter.     Column Row Layer    Maximum-Head-Change  Column Row Layer    Maximum-Flux-Residual          L2-NORM 
          0                 1           2             4    7     1       0.2280961842E+00       4    7    1         0.1207033359E+02      0.2134923939E+02
          0                 2           2             4    7     1       0.6467913400E-01       4    7    1         0.3416657645E+01      0.5732131992E+01
          0                 3           2             5    8     1      -0.2909664772E-01       5    8    1        -0.1612108598E+01      0.3152366164E+01
          0                 4           2             4    7     1       0.2870404750E-01       4    7    1         0.1586437792E+01      0.3652434278E+01
          0                 5           2             4    7     1       0.9349646620E-02       4    7    1         0.5169739158E+00      0.1174533202E+01
          0                 6           2             4    7     1       0.3043866879E-02       4    7    1         0.1683772106E+00      0.3777982746E+00
          0                 7           2             4    7     1       0.9904774462E-03       4    7    1         0.5481221916E-01      0.1215350951E+00
          0                 8           2             4    7     1       0.3221525758E-03       4    7    1         0.1783450210E-01      0.3910069820E-01
          0                 9           1             4    7     1       0.1047335527E-03       4    7    1         0.5800209838E-02      0.1258068560E-01
          0                10           1             4    7     1       0.3403501257E-04       4    7    1         0.1885535101E-02      0.4048157347E-02

    ------------------------------------------------
       NWT REQUIRED           10 OUTER ITERATIONS 
       AND A TOTAL OF         18 INNER ITERATIONS.
    ------------------------------------------------

 NO OUTPUT CONTROL FOR STRESS PERIOD   46   TIME STEP   15
 
 SOLVING FOR HEAD 
                                                   Max.-Head-Change                         Max.-Flux-Residual
  Residual-Control   Outer-Iter.   Inner-Iter.     Column Row Layer    Maximum-Head-Change  Column Row Layer    Maximum-Flux-Residual          L2-NORM 
          0                 1           2             4    7     1       0.2218445474E+00       4    7    1         0.1174147975E+02      0.2067751470E+02
          0                 2           2             4    7     1       0.6289022633E-01       4    7    1         0.3322817680E+01      0.5561109539E+01
          0                 3           2             5    8     1      -0.2907309677E-01       5    8    1        -0.1610257109E+01      0.3187820557E+01
          0                 4           2             4    7     1       0.2855672524E-01       4    7    1         0.1578263270E+01      0.3639665994E+01
          0                 5           2             4    7     1       0.9301882201E-02       4    7    1         0.5143219024E+00      0.1170397518E+01
          0                 6           2             4    7     1       0.3028390850E-02       4    7    1         0.1675174735E+00      0.3764595909E+00
          0                 7           2             4    7     1       0.9854660289E-03       4    7    1         0.5453368538E-01      0.1211019518E+00
          0                 8           2             4    7     1       0.3205306465E-03       4    7    1         0.1774431614E-01      0.3896060257E-01
          0                 9           1             4    7     1       0.1042088709E-03       4    7    1         0.5771023936E-02      0.1253538820E-01
          0                10           1             4    7     1       0.3386535622E-04       4    7    1         0.1876094460E-02      0.4033516030E-02

    ------------------------------------------------
       NWT REQUIRED           10 OUTER ITERATIONS 
       AND A TOTAL OF         18 INNER ITERATIONS.
    ------------------------------------------------

 NO OUTPUT CONTROL FOR STRESS PERIOD   46   TIME STEP   16
 
 SOLVING FOR HEAD 
                                                   Max.-Head-Change                         Max.-Flux-Residual
  Residual-Control   Outer-Iter.   Inner-Iter.     Column Row Layer    Maximum-Head-Change  Column Row Layer    Maximum-Flux-Residual          L2-NORM 
          0                 1           2             4    7     1       0.2157147596E+00       4    7    1         0.1141858286E+02      0.2003903072E+02
          0                 2           2             4    7     1       0.6113935396E-01       4    7    1         0.3230852148E+01      0.5397314344E+01
          0                 3           2             5    8     1      -0.2906277513E-01       5    8    1        -0.1609182992E+01      0.3222548250E+01
          0                 4           2             4    7     1       0.2841295717E-01       4    7    1         0.1570277774E+01      0.3627351881E+01
          0                 5           2             4    7     1       0.9255319456E-02       4    7    1         0.5117342047E+00      0.1166409041E+01
          0                 6           2             4    7     1       0.3013318667E-02       4    7    1         0.1666794645E+00      0.3751685726E+00
          0                 7           2             4    7     1       0.9805896443E-03       4    7    1         0.5426244885E-01      0.1206842328E+00
          0                 8           2             4    7     1       0.3189536719E-03       4    7    1         0.1765656875E-01      0.3882549538E-01
          0                 9           1             4    7     1       0.1036991008E-03       4    7    1         0.5742649512E-02      0.1249170334E-01
          0                10           1             4    7     1       0.3370062876E-04       4    7    1         0.1866922845E-02      0.4019394978E-02

    ------------------------------------------------
       NWT REQUIRED           10 OUTER ITERATIONS 
       AND A TOTAL OF         18 INNER ITERATIONS.
    ------------------------------------------------

 NO OUTPUT CONTROL FOR STRESS PERIOD   46   TIME STEP   17
 
 SOLVING FOR HEAD 
                                                   Max.-Head-Change                         Max.-Flux-Residual
  Residual-Control   Outer-Iter.   Inner-Iter.     Column Row Layer    Maximum-Head-Change  Column Row Layer    Maximum-Flux-Residual          L2-NORM 
          0                 1           2             4    7     1       0.2097160103E+00       4    7    1         0.1110220462E+02      0.1943147296E+02
          0                 2           2             4    7     1       0.5942860113E-01       4    7    1         0.3140891109E+01      0.5240299267E+01
          0                 3           2             5    8     1      -0.2906385314E-01       5    8    1        -0.1608779891E+01      0.3256504937E+01
          0                 4           2             4    7     1       0.2827283876E-01       4    7    1         0.1562488016E+01      0.3615472253E+01
          0                 5           2             4    7     1       0.9209980791E-02       4    7    1         0.5092124834E+00      0.1162561412E+01
          0                 6           2             4    7     1       0.2998655074E-02       4    7    1         0.1658635697E+00      0.3739231643E+00
          0                 7           2             4    7     1       0.9758490873E-03       4    7    1         0.5399858992E-01      0.1202812742E+00
          0                 8           2             4    7     1       0.3174216921E-03       4    7    1         0.1757127276E-01      0.3869516241E-01
          0                 9           1             4    7     1       0.1032041895E-03       4    7    1         0.5715086781E-02      0.1244956198E-01
          0                10           1             4    7     1       0.3354079598E-04       4    7    1         0.1858019196E-02      0.4005773086E-02

    ------------------------------------------------
       NWT REQUIRED           10 OUTER ITERATIONS 
       AND A TOTAL OF         18 INNER ITERATIONS.
    ------------------------------------------------

 NO OUTPUT CONTROL FOR STRESS PERIOD   46   TIME STEP   18
 
 SOLVING FOR HEAD 
                                                   Max.-Head-Change                         Max.-Flux-Residual
  Residual-Control   Outer-Iter.   Inner-Iter.     Column Row Layer    Maximum-Head-Change  Column Row Layer    Maximum-Flux-Residual          L2-NORM 
          0                 1           2             4    7     1       0.2038550486E+00       4    7    1         0.1079276642E+02      0.1885276200E+02
          0                 2           2             4    7     1       0.5775943724E-01       4    7    1         0.3053029200E+01      0.5089663420E+01
          0                 3           2             5    8     1      -0.2907473098E-01       5    8    1        -0.1608954797E+01      0.3289663120E+01
          0                 4           2             4    7     1       0.2813643324E-01       4    7    1         0.1554898702E+01      0.3604009615E+01
          0                 5           2             4    7     1       0.9165879479E-02       4    7    1         0.5067578275E+00      0.1158848947E+01
          0                 6           2             4    7     1       0.2984402246E-02       4    7    1         0.1650700135E+00      0.3727215244E+00
          0                 7           2             4    7     1       0.9712444363E-03       4    7    1         0.5374214350E-01      0.1198924801E+00
          0                 8           2             4    7     1       0.3159345471E-03       4    7    1         0.1748842832E-01      0.3856941105E-01
          0                 9           1             4    7     1       0.1027240317E-03       4    7    1         0.5688332556E-02      0.1240890189E-01
          0                10           1             4    7     1       0.3338580688E-04       4    7    1         0.1849381516E-02      0.3992629939E-02

    ------------------------------------------------
       NWT REQUIRED           10 OUTER ITERATIONS 
       AND A TOTAL OF         18 INNER ITERATIONS.
    ------------------------------------------------

 NO OUTPUT CONTROL FOR STRESS PERIOD   46   TIME STEP   19
 
 SOLVING FOR HEAD 
                                                   Max.-Head-Change                         Max.-Flux-Residual
  Residual-Control   Outer-Iter.   Inner-Iter.     Column Row Layer    Maximum-Head-Change  Column Row Layer    Maximum-Flux-Residual          L2-NORM 
          0                 1           2             4    7     1       0.1981371814E+00       4    7    1         0.1049060554E+02      0.1830102848E+02
          0                 2           2             4    7     1       0.5613297537E-01       4    7    1         0.2967340241E+01      0.4945045612E+01
          0                 3           2             5    8     1      -0.2909401578E-01       5    8    1        -0.1609626731E+01      0.3322004071E+01
          0                 4           2             4    7     1       0.2800378035E-01       4    7    1         0.1547513089E+01      0.3592947218E+01
          0                 5           2             4    7     1       0.9123022064E-02       4    7    1         0.5043709098E+00      0.1155266218E+01
          0                 6           2             4    7     1       0.2970560435E-02       4    7    1         0.1642989012E+00      0.3715618958E+00
          0                 7           2             4    7     1       0.9667752230E-03       4    7    1         0.5349311038E-01      0.1195172823E+00
          0                 8           2             4    7     1       0.3144919236E-03       4    7    1         0.1740802589E-01      0.3844805752E-01
          0                 9           1             4    7     1       0.1022584776E-03       4    7    1         0.5662380826E-02      0.1236966369E-01
          0                10           1             4    7     1       0.3323559956E-04       4    7    1         0.1841007008E-02      0.3979946345E-02

    ------------------------------------------------
       NWT REQUIRED           10 OUTER ITERATIONS 
       AND A TOTAL OF         18 INNER ITERATIONS.
    ------------------------------------------------

 NO OUTPUT CONTROL FOR STRESS PERIOD   46   TIME STEP   20
 
 SOLVING FOR HEAD 
                                                   Max.-Head-Change                         Max.-Flux-Residual
  Residual-Control   Outer-Iter.   Inner-Iter.     Column Row Layer    Maximum-Head-Change  Column Row Layer    Maximum-Flux-Residual          L2-NORM 
          0                 1           2             4    7     1       0.1925656029E+00       4    7    1         0.1019593873E+02      0.1777456000E+02
          0                 2           2             4    7     1       0.5454978966E-01       4    7    1         0.2883867285E+01      0.4806111189E+01
          0                 3           2             5    8     1      -0.2912051254E-01       5    8    1        -0.1610716949E+01      0.3353515217E+01
          0                 4           2             4    7     1       0.2787488107E-01       4    7    1         0.1540332112E+01      0.3582263051E+01
          0                 5           2             4    7     1       0.9081403524E-02       4    7    1         0.5020517111E+00      0.1151811557E+01
          0                 6           2             4    7     1       0.2957126446E-02       4    7    1         0.1635501318E+00      0.3704436346E+00
          0                 7           2             4    7     1       0.9624399505E-03       4    7    1         0.5325142996E-01      0.1191554626E+00
          0                 8           2             4    7     1       0.3130932011E-03       4    7    1         0.1733003765E-01      0.3833102835E-01
          0                 9           1             4    7     1       0.1018072871E-03       4    7    1         0.5637220194E-02      0.1233182274E-01
          0                10           1             4    7     1       0.3309008374E-04       4    7    1         0.1832891260E-02      0.3967714020E-02

    ------------------------------------------------
       NWT REQUIRED           10 OUTER ITERATIONS 
       AND A TOTAL OF         18 INNER ITERATIONS.
    ------------------------------------------------

 NO OUTPUT CONTROL FOR STRESS PERIOD   46   TIME STEP   21
 
 SOLVING FOR HEAD 
                                                   Max.-Head-Change                         Max.-Flux-Residual
  Residual-Control   Outer-Iter.   Inner-Iter.     Column Row Layer    Maximum-Head-Change  Column Row Layer    Maximum-Flux-Residual          L2-NORM 
          0                 1           2             4    7     1       0.1871427341E+00       4    7    1         0.9908935839E+01      0.1727182334E+02
          0                 2           2             4    7     1       0.5301027734E-01       4    7    1         0.2802642406E+01      0.4672564280E+01
          0                 3           2             5    8     1      -0.2915314084E-01       5    8    1        -0.1612182850E+01      0.3384201691E+01
          0                 4           2             4    7     1       0.2774972610E-01       4    7    1         0.1533356025E+01      0.3571952020E+01
          0                 5           2             4    7     1       0.9041016223E-02       4    7    1         0.4998000333E+00      0.1148472341E+01
          0                 6           2             4    7     1       0.2944096441E-02       4    7    1         0.1628235584E+00      0.3693628599E+00
          0                 7           2             4    7     1       0.9582369744E-03       4    7    1         0.5301703039E-01      0.1188057838E+00
          0                 8           2             4    7     1       0.3117377293E-03       4    7    1         0.1725443318E-01      0.3821792945E-01
          0                 9           1             4    7     1       0.1013702142E-03       4    7    1         0.5612838680E-02      0.1229525349E-01
          0                10           1             4    7     1       0.3294916982E-04       4    7    1         0.1825029796E-02      0.3955893023E-02

    ------------------------------------------------
       NWT REQUIRED           10 OUTER ITERATIONS 
       AND A TOTAL OF         18 INNER ITERATIONS.
    ------------------------------------------------

 NO OUTPUT CONTROL FOR STRESS PERIOD   46   TIME STEP   22
 
 SOLVING FOR HEAD 
                                                   Max.-Head-Change                         Max.-Flux-Residual
  Residual-Control   Outer-Iter.   Inner-Iter.     Column Row Layer    Maximum-Head-Change  Column Row Layer    Maximum-Flux-Residual          L2-NORM 
          0                 1           2             4    7     1       0.1818694628E+00       4    7    1         0.9629679725E+01      0.1679138518E+02
          0                 2           2             4    7     1       0.5151443963E-01       4    7    1         0.2723675300E+01      0.4544121140E+01
          0                 3           2             5    8     1      -0.2919099170E-01       5    8    1        -0.1613960587E+01      0.3414062826E+01
          0                 4           2             4    7     1       0.2762828662E-01       4    7    1         0.1526583881E+01      0.3561994310E+01
          0                 5           2             4    7     1       0.9001846857E-02       4    7    1         0.4976153302E+00      0.1145247631E+01
          0                 6           2             4    7     1       0.2931464946E-02       4    7    1         0.1621189339E+00      0.3683191606E+00
          0                 7           2             4    7     1       0.9541641808E-03       4    7    1         0.5278981090E-01      0.1184681035E+00
          0                 8           2             4    7     1       0.3104247224E-03       4    7    1         0.1718117374E-01      0.3810871160E-01
          0                 9           1             4    7     1       0.1009469764E-03       4    7    1         0.5589221997E-02      0.1225993906E-01
          0                10           1             4    7     1       0.3281275780E-04       4    7    1         0.1817417432E-02      0.3944477581E-02

    ------------------------------------------------
       NWT REQUIRED           10 OUTER ITERATIONS 
       AND A TOTAL OF         18 INNER ITERATIONS.
    ------------------------------------------------

 NO OUTPUT CONTROL FOR STRESS PERIOD   46   TIME STEP   23
 
 SOLVING FOR HEAD 
                                                   Max.-Head-Change                         Max.-Flux-Residual
  Residual-Control   Outer-Iter.   Inner-Iter.     Column Row Layer    Maximum-Head-Change  Column Row Layer    Maximum-Flux-Residual          L2-NORM 
          0                 1           2             4    7     1       0.1767461542E+00       4    7    1         0.9358220321E+01      0.1633197000E+02
          0                 2           2             4    7     1       0.5006216674E-01       4    7    1         0.2646968371E+01      0.4420533571E+01
          0                 3           2             5    8     1      -0.2923324600E-01       5    8    1        -0.1616002530E+01      0.3443098953E+01
          0                 4           2             4    7     1       0.2751052374E-01       4    7    1         0.1520014081E+01      0.3552372532E+01
          0                 5           2             4    7     1       0.8963879467E-02       4    7    1         0.4954968794E+00      0.1142136408E+01
          0                 6           2             4    7     1       0.2919225804E-02       4    7    1         0.1614359641E+00      0.3673121497E+00
          0                 7           2             4    7     1       0.9502192849E-03       4    7    1         0.5256965867E-01      0.1181422963E+00
          0                 8           2             4    7     1       0.3091533566E-03       4    7    1         0.1711021765E-01      0.3800333418E-01
          0                 9           1             4    7     1       0.1005372799E-03       4    7    1         0.5566355079E-02      0.1222586635E-01
          0                10           1             4    7     1       0.3268074567E-04       4    7    1         0.1810048892E-02      0.3933463493E-02

    ------------------------------------------------
       NWT REQUIRED           10 OUTER ITERATIONS 
       AND A TOTAL OF         18 INNER ITERATIONS.
    ------------------------------------------------

 NO OUTPUT CONTROL FOR STRESS PERIOD   46   TIME STEP   24
 
 SOLVING FOR HEAD 
                                                   Max.-Head-Change                         Max.-Flux-Residual
  Residual-Control   Outer-Iter.   Inner-Iter.     Column Row Layer    Maximum-Head-Change  Column Row Layer    Maximum-Flux-Residual          L2-NORM 
          0                 1           2             4    7     1       0.1717721124E+00       4    7    1         0.9094547414E+01      0.1589236570E+02
          0                 2           2             4    7     1       0.4865307568E-01       4    7    1         0.2572508524E+01      0.4301560705E+01
          0                 3           2             5    8     1      -0.2927920371E-01       5    8    1        -0.1618267921E+01      0.3471328192E+01
          0                 4           2             4    7     1       0.2739638155E-01       4    7    1         0.1513643997E+01      0.3543077825E+01
          0                 5           2             4    7     1       0.8927093041E-02       4    7    1         0.4934436546E+00      0.1139129966E+01
          0                 6           2             4    7     1       0.2907371361E-02       4    7    1         0.1607742653E+00      0.3663390826E+00
          0                 7           2             4    7     1       0.9463995583E-03       4    7    1         0.5235643423E-01      0.1178274728E+00
          0                 8           2             4    7     1       0.3079226742E-03       4    7    1         0.1704151532E-01      0.3790150941E-01
          0                 9           1             4    7     1       0.1001407953E-03       4    7    1         0.5544220624E-02      0.1219294229E-01
          0                10           1             4    7     1       0.3255302006E-04       4    7    1         0.1802918159E-02      0.3922820691E-02

    ------------------------------------------------
       NWT REQUIRED           10 OUTER ITERATIONS 
       AND A TOTAL OF         18 INNER ITERATIONS.
    ------------------------------------------------

 NO OUTPUT CONTROL FOR STRESS PERIOD   46   TIME STEP   25
 
 SOLVING FOR HEAD 
                                                   Max.-Head-Change                         Max.-Flux-Residual
  Residual-Control   Outer-Iter.   Inner-Iter.     Column Row Layer    Maximum-Head-Change  Column Row Layer    Maximum-Flux-Residual          L2-NORM 
          0                 1           2             4    7     1       0.1669459967E+00       4    7    1         0.8838612584E+01      0.1547146133E+02
          0                 2           2             4    7     1       0.4728662790E-01       4    7    1         0.2500273420E+01      0.4186980133E+01
          0                 3           2             5    8     1      -0.2932825914E-01       5    8    1        -0.1620721464E+01      0.3498761877E+01
          0                 4           2             4    7     1       0.2728579660E-01       4    7    1         0.1507470513E+01      0.3534095436E+01
          0                 5           2             4    7     1       0.8891464590E-02       4    7    1         0.4914544973E+00      0.1136225600E+01
          0                 6           2             4    7     1       0.2895893453E-02       4    7    1         0.1601334187E+00      0.3653990284E+00
          0                 7           2             4    7     1       0.9427021480E-03       4    7    1         0.5214998924E-01      0.1175233246E+00
          0                 8           2             4    7     1       0.3067316907E-03       4    7    1         0.1697501498E-01      0.3780313541E-01
          0                 9           1             4    7     1       0.9975718485E-04       4    7    1         0.5522800745E-02      0.1216113329E-01

    ------------------------------------------------
       NWT REQUIRED            9 OUTER ITERATIONS 
       AND A TOTAL OF         17 INNER ITERATIONS.
    ------------------------------------------------

 NO OUTPUT CONTROL FOR STRESS PERIOD   46   TIME STEP   26
 
 SOLVING FOR HEAD 
                                                   Max.-Head-Change                         Max.-Flux-Residual
  Residual-Control   Outer-Iter.   Inner-Iter.     Column Row Layer    Maximum-Head-Change  Column Row Layer    Maximum-Flux-Residual          L2-NORM 
          0                 1           2             4    7     1       0.1622664605E+00       4    7    1         0.8590363409E+01      0.1506830238E+02
          0                 2           2             4    7     1       0.4596231004E-01       4    7    1         0.2430240999E+01      0.4076607616E+01
          0                 3           2             5    8     1      -0.2937980571E-01       5    8    1        -0.1623326750E+01      0.3525406463E+01
          0                 4           2             4    7     1       0.2717870821E-01       4    7    1         0.1501490588E+01      0.3525416220E+01
          0                 5           2             4    7     1       0.8856972450E-02       4    7    1         0.4895283015E+00      0.1133419681E+01
          0                 6           2             4    7     1       0.2884784481E-02       4    7    1         0.1595130304E+00      0.3644908616E+00
          0                 7           2             4    7     1       0.9391244235E-03       4    7    1         0.5195018582E-01      0.1172294994E+00
          0                 8           2             4    7     1       0.3055795048E-03       4    7    1         0.1691066892E-01      0.3770810175E-01
          0                 9           1             4    7     1       0.9938614168E-04       4    7    1         0.5502079111E-02      0.1213040474E-01

    ------------------------------------------------
       NWT REQUIRED            9 OUTER ITERATIONS 
       AND A TOTAL OF         17 INNER ITERATIONS.
    ------------------------------------------------

 NO OUTPUT CONTROL FOR STRESS PERIOD   46   TIME STEP   27
 
 SOLVING FOR HEAD 
                                                   Max.-Head-Change                         Max.-Flux-Residual
  Residual-Control   Outer-Iter.   Inner-Iter.     Column Row Layer    Maximum-Head-Change  Column Row Layer    Maximum-Flux-Residual          L2-NORM 
          0                 1           2             4    7     1       0.1577306821E+00       4    7    1         0.8349667310E+01      0.1468186242E+02
          0                 2           2             4    7     1       0.4467920355E-01       4    7    1         0.2362367321E+01      0.3970229822E+01
          0                 3           2             5    8     1      -0.2943344552E-01       5    8    1        -0.1626061223E+01      0.3551284997E+01
          0                 4           2             4    7     1       0.2707502579E-01       4    7    1         0.1495699489E+01      0.3517026019E+01
          0                 5           2             4    7     1       0.8823585503E-02       4    7    1         0.4876634249E+00      0.1130707116E+01
          0                 6           2             4    7     1       0.2874033845E-02       4    7    1         0.1589125369E+00      0.3636129039E+00
          0                 7           2             4    7     1       0.9356627983E-03       4    7    1         0.5175683211E-01      0.1169454437E+00
          0                 8           2             4    7     1       0.3044649106E-03       4    7    1         0.1684841236E-01      0.3761622640E-01
          0                 9           1             4    7     1       0.9902726386E-04       4    7    1         0.5482033979E-02      0.1210069683E-01

    ------------------------------------------------
       NWT REQUIRED            9 OUTER ITERATIONS 
       AND A TOTAL OF         17 INNER ITERATIONS.
    ------------------------------------------------

 NO OUTPUT CONTROL FOR STRESS PERIOD   46   TIME STEP   28
 
 SOLVING FOR HEAD 
                                                   Max.-Head-Change                         Max.-Flux-Residual
  Residual-Control   Outer-Iter.   Inner-Iter.     Column Row Layer    Maximum-Head-Change  Column Row Layer    Maximum-Flux-Residual          L2-NORM 
          0                 1           2             4    7     1       0.1533362838E+00       4    7    1         0.8116413149E+01      0.1431125110E+02
          0                 2           2             4    7     1       0.4343652322E-01       4    7    1         0.2296615298E+01      0.3867664113E+01
          0                 3           2             5    8     1      -0.2948876142E-01       5    8    1        -0.1628894019E+01      0.3576416339E+01
          0                 4           2             4    7     1       0.2697467027E-01       4    7    1         0.1490093076E+01      0.3508913325E+01
          0                 5           2             4    7     1       0.8791276619E-02       4    7    1         0.4858584337E+00      0.1128084340E+01
          0                 6           2             4    7     1       0.2863632317E-02       4    7    1         0.1583314469E+00      0.3627640135E+00
          0                 7           2             4    7     1       0.9323141563E-03       4    7    1         0.5156976114E-01      0.1166707930E+00
          0                 8           2             4    7     1       0.3033868616E-03       4    7    1         0.1678818891E-01      0.3752739298E-01
          0                 9           1             4    7     1       0.9868020145E-04       4    7    1         0.5462646423E-02      0.1207197245E-01

    ------------------------------------------------
       NWT REQUIRED            9 OUTER ITERATIONS 
       AND A TOTAL OF         17 INNER ITERATIONS.
    ------------------------------------------------

 NO OUTPUT CONTROL FOR STRESS PERIOD   46   TIME STEP   29
 
 SOLVING FOR HEAD 
                                                   Max.-Head-Change                         Max.-Flux-Residual
  Residual-Control   Outer-Iter.   Inner-Iter.     Column Row Layer    Maximum-Head-Change  Column Row Layer    Maximum-Flux-Residual          L2-NORM 
          0                 1           2             4    7     1       0.1490801807E+00       4    7    1         0.7890449888E+01      0.1395564191E+02
          0                 2           2             4    7     1       0.4223333647E-01       4    7    1         0.2232937505E+01      0.3768743508E+01
          0                 3           2             5    8     1      -0.2954541570E-01       5    8    1        -0.1631821380E+01      0.3600819364E+01
          0                 4           2             4    7     1       0.2687755936E-01       4    7    1         0.1484666977E+01      0.3501072439E+01
          0                 5           2             4    7     1       0.8760017914E-02       4    7    1         0.4841118386E+00      0.1125545308E+01
          0                 6           2             4    7     1       0.2853570507E-02       4    7    1         0.1577692560E+00      0.3619423125E+00
          0                 7           2             4    7     1       0.9290753524E-03       4    7    1         0.5138880325E-01      0.1164049474E+00
          0                 8           2             4    7     1       0.3023443092E-03       4    7    1         0.1672994176E-01      0.3744141001E-01
          0                 9           1             4    7     1       0.9834460500E-04       4    7    1         0.5443897486E-02      0.1204417040E-01

    ------------------------------------------------
       NWT REQUIRED            9 OUTER ITERATIONS 
       AND A TOTAL OF         17 INNER ITERATIONS.
    ------------------------------------------------

 NO OUTPUT CONTROL FOR STRESS PERIOD   46   TIME STEP   30



 STREAM LISTING     PERIOD     46   STEP       30

 LAYER ROW COL. STREAM  RCH.  FLOW INTO     FLOW TO   FLOW OUT OF   OVRLND.     DIRECT     STREAM       STREAM     STREAM     STREAM   STREAMBED  STREAMBED
                SEG.NO.  NO.  STRM. RCH.    AQUIFER    STRM. RCH.    RUNOFF     PRECIP       ET          HEAD       DEPTH      WIDTH   CONDCTNC.   GRADIENT

   1    1    1     1     1    1.8749E+01  2.1264E-01   1.8537E+01  0.000E+00  0.000E+00  0.000E+00  1.09413E+03  1.078E+00  1.159E+01  5.215E-02  1.359E+00
   1    2    2     1     2    1.8537E+01  3.2801E-01   1.8209E+01  0.000E+00  0.000E+00  0.000E+00  1.08913E+03  1.073E+00  1.150E+01  8.053E-02  1.358E+00
   1    3    3     1     3    1.8209E+01  2.7848E-01   1.7930E+01  0.000E+00  0.000E+00  0.000E+00  1.08349E+03  1.068E+00  1.141E+01  6.845E-02  1.356E+00
   1    3    4     1     4    1.7930E+01  2.5541E-01   1.7675E+01  0.000E+00  0.000E+00  0.000E+00  1.07847E+03  1.064E+00  1.132E+01  6.285E-02  1.355E+00
   1    4    5     2     1    1.5675E+01  3.0476E-01   1.5370E+01  0.000E+00  0.000E+00  0.000E+00  1.07284E+03  9.072E-01  1.200E+01  7.800E-02  1.302E+00
   1    5    6     2     2    1.5370E+01  2.3387E-01   1.5136E+01  0.000E+00  0.000E+00  0.000E+00  1.06741E+03  8.978E-01  1.200E+01  6.000E-02  1.299E+00
   1    6    6     2     3    1.5136E+01  2.3337E-01   1.4903E+01  0.000E+00  0.000E+00  0.000E+00  1.06268E+03  8.895E-01  1.200E+01  6.000E-02  1.296E+00
   1    7    6     2     4    1.4903E+01  2.3287E-01   1.4670E+01  0.000E+00  0.000E+00  0.000E+00  1.05796E+03  8.812E-01  1.200E+01  6.000E-02  1.294E+00
   1    8    6     2     5    1.4670E+01  2.3237E-01   1.4438E+01  0.000E+00  0.000E+00  0.000E+00  1.05323E+03  8.728E-01  1.200E+01  6.000E-02  1.291E+00
   1    3    5     3     1    2.0000E+00  2.8252E-01   1.7175E+00  0.000E+00  0.000E+00  0.000E+00  1.07555E+03  1.909E+00  9.636E+00  7.227E-02  1.955E+00
   1    3    6     3     2    1.7175E+00  2.4905E-01   1.4684E+00  0.000E+00  0.000E+00  0.000E+00  1.07264E+03  1.727E+00  8.909E+00  6.682E-02  1.864E+00
   1    3    7     3     3    1.4684E+00  1.9718E-01   1.2712E+00  0.000E+00  0.000E+00  0.000E+00  1.06987E+03  1.555E+00  8.218E+00  5.547E-02  1.777E+00
   1    4    8     3     4    1.2712E+00  2.2567E-01   1.0456E+00  0.000E+00  0.000E+00  0.000E+00  1.06682E+03  1.364E+00  7.455E+00  6.709E-02  1.682E+00
   1    5    8     3     5    1.0456E+00  1.5790E-01   8.8768E-01  0.000E+00  0.000E+00  0.000E+00  1.06362E+03  1.164E+00  6.655E+00  4.991E-02  1.582E+00
   1    6    8     3     6    8.8768E-01  5.5980E-02   8.3170E-01  0.000E+00  0.000E+00  0.000E+00  1.06158E+03  1.036E+00  6.145E+00  1.844E-02  1.518E+00
   1    5   10     4     1    1.0000E+01  9.0919E-02   9.9091E+00  0.000E+00  0.000E+00  0.000E+00  1.07836E+03  6.368E-01  1.000E+01  2.500E-02  1.212E+00
   1    5    9     4     2    9.9091E+00  1.8158E-01   9.7275E+00  0.000E+00  0.000E+00  0.000E+00  1.07154E+03  6.315E-01  1.000E+01  5.000E-02  1.211E+00
   1    6    8     4     3    9.7275E+00  1.2689E-01   9.6006E+00  0.000E+00  0.000E+00  0.000E+00  1.06381E+03  6.256E-01  1.000E+01  3.500E-02  1.209E+00
   1    6    8     5     1    1.0432E+01  2.2686E-01   1.0205E+01  0.000E+00  0.000E+00  0.000E+00  1.05868E+03  6.790E-01  1.542E+01  6.166E-02  1.226E+00
   1    7    7     5     2    1.0205E+01  2.7894E-01   9.9265E+00  0.000E+00  0.000E+00  0.000E+00  1.05417E+03  6.732E-01  1.519E+01  7.594E-02  1.224E+00
   1    8    7     5     3    9.9265E+00  1.9221E-01   9.7343E+00  0.000E+00  0.000E+00  0.000E+00  1.04992E+03  6.676E-01  1.497E+01  5.241E-02  1.223E+00
   1    8    6     5     4    9.7343E+00  1.3577E-01   9.5985E+00  0.000E+00  0.000E+00  0.000E+00  1.04691E+03  6.637E-01  1.482E+01  3.706E-02  1.221E+00
   1    9    6     6     1    1.2828E+01  2.2883E-01   1.2600E+01  0.000E+00  0.000E+00  0.000E+00  1.04354E+03  8.138E-01  1.200E+01  6.000E-02  1.271E+00
   1   10    7     6     2    1.2600E+01  2.2830E-01   1.2371E+01  0.000E+00  0.000E+00  0.000E+00  1.03899E+03  8.050E-01  1.200E+01  6.000E-02  1.268E+00
   1   11    7     6     3    1.2371E+01  2.2777E-01   1.2144E+01  0.000E+00  0.000E+00  0.000E+00  1.03443E+03  7.962E-01  1.200E+01  6.000E-02  1.265E+00
   1   12    7     6     4    1.2144E+01  2.2724E-01   1.1916E+01  0.000E+00  0.000E+00  0.000E+00  1.02988E+03  7.873E-01  1.200E+01  6.000E-02  1.262E+00
   1   13    7     6     5    1.1916E+01 -5.3492E-02   1.1970E+01  0.000E+00  0.000E+00  0.000E+00  1.02669E+03  7.839E-01  1.200E+01  2.400E-01 -7.429E-02
   1   14    9     7     1    1.5000E+02  1.3536E+00   1.4865E+02  0.000E+00  0.000E+00  0.000E+00  1.03987E+03  2.288E+00  5.529E+01  5.593E-01  8.067E-01
   1   13    8     7     2    1.4865E+02  1.8844E+00   1.4676E+02  0.000E+00  0.000E+00  0.000E+00  1.03478E+03  2.279E+00  5.526E+01  6.148E-01  1.022E+00
   1   13    7     7     3    1.4676E+02  1.5487E+00   1.4521E+02  0.000E+00  0.000E+00  0.000E+00  1.02969E+03  2.270E+00  5.521E+01  5.584E-01  9.245E-01
   1   13    6     8     1    1.5718E+02  9.2352E-01   1.5626E+02  0.000E+00  0.000E+00  0.000E+00  1.02474E+03  2.864E+00  4.152E+01  4.231E-01  7.276E-01
   1   13    5     8     2    1.5626E+02  1.8835E-01   1.5607E+02  0.000E+00  0.000E+00  0.000E+00  1.01848E+03  2.860E+00  4.147E+01  4.226E-01  1.486E-01
   1   13    4     8     3    1.5607E+02 -2.3750E+00   1.5845E+02  0.000E+00  0.000E+00  0.000E+00  1.01224E+03  2.867E+00  4.157E+01  4.237E+00 -1.869E-01
   1   13    3     8     4    1.5845E+02 -3.6174E+00   1.6206E+02  0.000E+00  0.000E+00  0.000E+00  1.00601E+03  2.888E+00  4.187E+01  4.267E+00 -2.826E-01
   1   13    2     8     5    1.6206E+02 -2.5826E+00   1.6465E+02  0.000E+00  0.000E+00  0.000E+00  9.99783E+02  2.908E+00  4.217E+01  4.297E+00 -2.003E-01
   1   13    1     8     6    1.6465E+02 -1.9920E+00   1.6664E+02  0.000E+00  0.000E+00  0.000E+00  9.94799E+02  2.924E+00  4.239E+01  2.592E+00 -2.562E-01
   1    8    6     9     1    1.1208E+01  0.0000E+00   1.1208E+01  0.000E+00  0.000E+00  0.000E+00  1.08118E+03  2.427E+00  4.000E+00  0.000E+00  1.809E+00
   1    8    5     9     2    1.1208E+01  0.0000E+00   1.1208E+01  0.000E+00  0.000E+00  0.000E+00  1.08068E+03  2.427E+00  4.000E+00  0.000E+00  1.809E+00





UNSATURATED ZONE PACKAGE VOLUMETRIC BUDGET FOR  TIME STEP    30 STRESS PERIOD   46
  ------------------------------------------------------------------------------



     CUMULATIVE VOLUMES      L**3       RATES FOR THIS TIME STEP      L**3/T
     ------------------                 ------------------------

           IN:                                      IN:
           ---                                      ---
        INFILTRATION =  2432359858.0380          INFILTRATION =          12.0555

          OUT:                                     OUT:
          ----                                     ----
              UZF ET =  1698211093.2661                UZF ET =          12.0675
        UZF RECHARGE =   171921522.1655          UZF RECHARGE =          23.0339

            IN - OUT =   562227242.6064              IN - OUT =         -23.0459

          STORAGE:                                 STORAGE:
          --------                                 --------
      STORAGE CHANGE =   563895519.8070        STORAGE CHANGE =         -23.0459

 PERCENT DISCREPANCY IS DIFFERENCE BETWEEN IN-OUT MINUS CHANGE IN STORAGE
 DIVIDED BY THE AVERAGE OF IN AND OUT TIMES 100

 PERCENT DISCREPANCY =          -0.02     PERCENT DISCREPANCY =           0.00






1
  VOLUMETRIC BUDGET FOR AGRICULTURAL FIELDS AT  END OF TIME STEP   30, STRESS PERIOD  46
  ------------------------------------------------------------------------------

     CUMULATIVE VOLUMES      L**3       RATES FOR THIS TIME STEP      L**3/T
     ------------------                 ------------------------

           IN:                                      IN:
           ---                                      ---
           AG WELLS      =  1123160832.0000             AG WELLS      =           0.0000
      DIVERSION SEGMENTS =  1208862336.0000        DIVERSION SEGMENTS =          11.2078
           GW IRRIGATION =           0.0000             GW IRRIGATION =           0.0000
           SW IRRIGATION =           0.0000             SW IRRIGATION =           0.0000
        SYSTEM LOSSES GW =           0.0000          SYSTEM LOSSES GW =           0.0000
        SYSTEM LOSSES SW =           0.0000          SYSTEM LOSSES SW =           0.0000

                TOTAL IN =  2332023296.0000                  TOTAL IN =          11.2078

          OUT:                                     OUT:
          ----                                     ----
           AG WELLS      =           0.0000             AG WELLS      =           0.0000
      DIVERSION SEGMENTS =           0.0000        DIVERSION SEGMENTS =           0.0000
           GW IRRIGATION =  1123160832.0000             GW IRRIGATION =           0.0000
           SW IRRIGATION =  1208884352.0000             SW IRRIGATION =          11.2080
        SYSTEM LOSSES GW =           0.0000          SYSTEM LOSSES GW =           0.0000
        SYSTEM LOSSES SW =           0.0000          SYSTEM LOSSES SW =           0.0000

               TOTAL OUT =  2332045312.0000                 TOTAL OUT =          11.2080

                IN - OUT =      -22016.0000                  IN - OUT =      -2.2411E-04

     PERCENT DISCREPANCY =          -0.00         PERCENT DISCREPANCY =          -0.00



1
  VOLUMETRIC BUDGET FOR ENTIRE MODEL AT END OF TIME STEP   30, STRESS PERIOD  46
  ------------------------------------------------------------------------------

     CUMULATIVE VOLUMES      L**3       RATES FOR THIS TIME STEP      L**3/T
     ------------------                 ------------------------

           IN:                                      IN:
           ---                                      ---
             STORAGE     =  1636972672.0000               STORAGE     =          25.0933
       CONSTANT HEAD     =           0.0000         CONSTANT HEAD     =           0.0000
     HEAD DEP BOUNDS     =    33883952.0000       HEAD DEP BOUNDS     =           0.2870
      STREAM LEAKAGE     =  1426850176.0000        STREAM LEAKAGE     =          11.5239
        UZF RECHARGE     =   171921520.0000          UZF RECHARGE     =          23.0339
               GW ET     =           0.0000                 GW ET     =           0.0000
     SURFACE LEAKAGE     =           0.0000       SURFACE LEAKAGE     =           0.0000
           AG WELLS      =           0.0000             AG WELLS      =           0.0000

                TOTAL IN =  3269628160.0000                  TOTAL IN =          59.9382

          OUT:                                     OUT:
          ----                                     ----
             STORAGE     =   847182016.0000               STORAGE     =          49.0207
       CONSTANT HEAD     =           0.0000         CONSTANT HEAD     =           0.0000
     HEAD DEP BOUNDS     =    34424636.0000       HEAD DEP BOUNDS     =           0.2876
      STREAM LEAKAGE     =  1261716096.0000        STREAM LEAKAGE     =          10.6204
        UZF RECHARGE     =           0.0000          UZF RECHARGE     =           0.0000
               GW ET     =     3143644.7500                 GW ET     =           0.0000
     SURFACE LEAKAGE     =           0.0000       SURFACE LEAKAGE     =           0.0000
           AG WELLS      =  1123160832.0000             AG WELLS      =           0.0000

               TOTAL OUT =  3269627392.0000                 TOTAL OUT =          59.9287

                IN - OUT =         768.0000                  IN - OUT =       9.4719E-03

     PERCENT DISCREPANCY =           0.00         PERCENT DISCREPANCY =           0.02






         TIME SUMMARY AT END OF TIME STEP   30 IN STRESS PERIOD   46
                    SECONDS     MINUTES      HOURS       DAYS        YEARS
                    -----------------------------------------------------------
   TIME STEP LENGTH  87667.      1461.1      24.352      1.0147     2.77799E-03
 STRESS PERIOD TIME 2.63000E+06  43833.      730.56      30.440     8.33397E-02
         TOTAL TIME 1.18435E+08 1.97392E+06  32899.      1370.8      3.7530    
1
1
                            STRESS PERIOD NO.   47, LENGTH =   2630000.    
                            -----------------------------------------------

                              NUMBER OF TIME STEPS =    30

                               MULTIPLIER FOR DELT =     1.000

                            INITIAL TIME STEP SIZE =   87666.66    

 REUSING NON-PARAMETER GHB CELLS FROM LAST STRESS PERIOD

      2 GHB CELLS

 REUSING STREAM SEGMENT DATA FROM LAST STRESS PERIOD



            AREAL INFILTRATION RATE
 READING ON UNIT   19 WITH FORMAT: (FREE)              

            1           2           3           4           5           6           7           8           9          10
 ........................................................................................................................
   1   1.0000E-10  2.0000E-10   0.000       0.000       0.000       0.000       0.000       0.000       0.000       0.000    
   2   2.0000E-10  1.0000E-10  2.0000E-10   0.000       0.000      8.0000E-10  8.0000E-10  5.0000E-10   0.000       0.000    
   3    0.000      5.0000E-10  1.0000E-10  1.0000E-10  8.0000E-10  8.0000E-10  5.0000E-10  5.0000E-10   0.000       0.000    
   4   8.0000E-10  5.0000E-10  1.0000E-10  1.0000E-10  1.0000E-10  1.0000E-10  1.0000E-10  1.0000E-10  2.0000E-10   0.000    
   5   8.0000E-10  5.0000E-10  1.0000E-10  1.0000E-10  1.0000E-10  1.0000E-10  1.0000E-10  1.0000E-10  1.0000E-10  1.0000E-10
   6   8.0000E-10  5.0000E-10  5.0000E-10  2.0000E-10  2.0000E-10  1.0000E-10  1.0000E-10  1.0000E-10  1.0000E-10  5.0000E-10
   7   8.0000E-10  5.0000E-10  5.0000E-10  2.0000E-10  2.0000E-10  1.0000E-10  1.0000E-10  2.0000E-10  2.0000E-10   0.000    
   8    0.000      5.0000E-10  5.0000E-10  2.0000E-10  2.0000E-10  1.0000E-10  1.0000E-10  2.0000E-10  5.0000E-10   0.000    
   9    0.000      5.0000E-10  5.0000E-10  2.0000E-10  2.0000E-10  1.0000E-10  1.0000E-10  2.0000E-10  5.0000E-10   0.000    
  10    0.000      5.0000E-10  5.0000E-10  2.0000E-10  2.0000E-10  1.0000E-10  1.0000E-10  2.0000E-10  5.0000E-10  8.0000E-10
  11    0.000      1.0000E-10  1.0000E-10  1.0000E-10  1.0000E-10  1.0000E-10  1.0000E-10  2.0000E-10  5.0000E-10   0.000    
  12   1.0000E-10  1.0000E-10  1.0000E-10  1.0000E-10  1.0000E-10  1.0000E-10  1.0000E-10  1.0000E-10  2.0000E-10   0.000    
  13   1.0000E-10  1.0000E-10  2.0000E-10  2.0000E-10  2.0000E-10  2.0000E-10  2.0000E-10  1.0000E-10  1.0000E-10   0.000    
  14    0.000      2.0000E-10  5.0000E-10  5.0000E-10  5.0000E-10  5.0000E-10  5.0000E-10  2.0000E-10  1.0000E-10   0.000    
  15    0.000       0.000      8.0000E-10  8.0000E-10  8.0000E-10  8.0000E-10   0.000       0.000       0.000       0.000    

                  ET RATE =  5.000000E-09

 USING ET EXTINCTION DEPTH FROM PREVIOUS STRESS PERIOD. CURRENT PERIOD IS:      47

 USING EXTINCTION WATER CONTENT FROM PREVIOUS STRESS PERIOD. CURRENT PERIOD IS:      47

 USING AIR ENTRY PRESSURE FROM PREVIOUS STRESS PERIOD. CURRENT PERIOD IS:      47

 USING ROOT PRESSURE HEAD FROM PREVIOUS STRESS PERIOD. CURRENT PERIOD IS:      47

 USING ROOT ACTIVITY FROM PREVIOUS STRESS PERIOD. CURRENT PERIOD IS:      47

 PROCESSING AG STRESS PERIOD DATA

 READING AG STRESS PERIOD DATA

 READING IRRIGATION SEGMENT

 READING IRRIGATION WELL

 READING SUPPLEMENTAL WELL

 END PROCESSING AG STRESS PERIOD DATA OPTIONS
 
 SOLVING FOR HEAD 
                                                   Max.-Head-Change                         Max.-Flux-Residual
  Residual-Control   Outer-Iter.   Inner-Iter.     Column Row Layer    Maximum-Head-Change  Column Row Layer    Maximum-Flux-Residual          L2-NORM 
          0                 1           2             4    7     1       0.1449595340E+00       4    7    1         0.7671636538E+01      0.1361359082E+02
          0                 2           2             4    7     1       0.4106873908E-01       4    7    1         0.2171290502E+01      0.3673232687E+01
          0                 3           2             4    7     1       0.1163553875E-01       4    7    1         0.6153560528E+00      0.1034099356E+01
          0                 4           2             4    7     1       0.3296642407E-02       4    7    1         0.1743298151E+00      0.2931170775E+00
          0                 5           2             4    7     1       0.9340446946E-03       4    7    1         0.4939265151E-01      0.8312141523E-01
          0                 6           2             4    7     1       0.2646515721E-03       4    7    1         0.1399461186E-01      0.2357223304E-01
          0                 7           1             4    7     1       0.7498817883E-04       4    7    1         0.3965250292E-02      0.6684897956E-02

    ------------------------------------------------
       NWT REQUIRED            7 OUTER ITERATIONS 
       AND A TOTAL OF         13 INNER ITERATIONS.
    ------------------------------------------------

 NO OUTPUT CONTROL FOR STRESS PERIOD   47   TIME STEP    1
 
 SOLVING FOR HEAD 
                                                   Max.-Head-Change                         Max.-Flux-Residual
  Residual-Control   Outer-Iter.   Inner-Iter.     Column Row Layer    Maximum-Head-Change  Column Row Layer    Maximum-Flux-Residual          L2-NORM 
          0                 1           2             4    7     1       0.1409708330E+00       4    7    1         0.7459796599E+01      0.1328534132E+02
          0                 2           2             4    7     1       0.3994044992E-01       4    7    1         0.2111556593E+01      0.3580801463E+01
          0                 3           2             4    7     1       0.9069017112E-02       4    7    1         0.4811403871E+00      0.7374285664E+00
          0                 4           2             4    7     1       0.4807730468E-02       4    7    1         0.2531086879E+00      0.4869305684E+00
          0                 5           2             4    7     1       0.1370165307E-02       4    7    1         0.7214591927E-01      0.1380596865E+00
          0                 6           2             4    7     1       0.3904011036E-03       4    7    1         0.2055981726E-01      0.3914739299E-01
          0                 7           1             4    7     1       0.1112137106E-03       4    7    1         0.5857779327E-02      0.1110075420E-01
          0                 8           1             4    7     1       0.3167514851E-04       4    7    1         0.1668618231E-02      0.3147868956E-02

    ------------------------------------------------
       NWT REQUIRED            8 OUTER ITERATIONS 
       AND A TOTAL OF         14 INNER ITERATIONS.
    ------------------------------------------------

 NO OUTPUT CONTROL FOR STRESS PERIOD   47   TIME STEP    2
 
 SOLVING FOR HEAD 
                                                   Max.-Head-Change                         Max.-Flux-Residual
  Residual-Control   Outer-Iter.   Inner-Iter.     Column Row Layer    Maximum-Head-Change  Column Row Layer    Maximum-Flux-Residual          L2-NORM 
          0                 1           2             4    7     1       0.1371104520E+00       4    7    1         0.7254744414E+01      0.1296938883E+02
          0                 2           2             4    7     1       0.3884853532E-01       4    7    1         0.2053740328E+01      0.3491672607E+01
          0                 3           2             4    7     1       0.8758397677E-02       4    7    1         0.4646781177E+00      0.7116318089E+00
          0                 4           2             4    7     1       0.4723391765E-02       4    7    1         0.2486382250E+00      0.4802754443E+00
          0                 5           2             4    7     1       0.1346346337E-02       4    7    1         0.7088342047E-01      0.1361691575E+00
          0                 6           2             4    7     1       0.3836731621E-03       4    7    1         0.2020323660E-01      0.3861053174E-01
          0                 7           1             4    7     1       0.1093131305E-03       4    7    1         0.5757056375E-02      0.1094831491E-01
          0                 8           1             4    7     1       0.3113819536E-04       4    7    1         0.1640164166E-02      0.3104588313E-02

    ------------------------------------------------
       NWT REQUIRED            8 OUTER ITERATIONS 
       AND A TOTAL OF         14 INNER ITERATIONS.
    ------------------------------------------------

 NO OUTPUT CONTROL FOR STRESS PERIOD   47   TIME STEP    3
 
 SOLVING FOR HEAD 
                                                   Max.-Head-Change                         Max.-Flux-Residual
  Residual-Control   Outer-Iter.   Inner-Iter.     Column Row Layer    Maximum-Head-Change  Column Row Layer    Maximum-Flux-Residual          L2-NORM 
          0                 1           2             4    7     1       0.1333750612E+00       4    7    1         0.7056309715E+01      0.1266569282E+02
          0                 2           2             4    7     1       0.3779596587E-01       4    7    1         0.1997997800E+01      0.3406070196E+01
          0                 3           2             4    7     1       0.8450602073E-02       4    7    1         0.4483698562E+00      0.6858490954E+00
          0                 4           2             4    7     1       0.4644311082E-02       4    7    1         0.2444439956E+00      0.4741631539E+00
          0                 5           2             4    7     1       0.1324027065E-02       4    7    1         0.6969974339E-01      0.1344323069E+00
          0                 6           2             4    7     1       0.3773734968E-03       4    7    1         0.1986917390E-01      0.3811719839E-01
          0                 7           1             4    7     1       0.1075347973E-03       4    7    1         0.5662763155E-02      0.1080820523E-01
          0                 8           1             4    7     1       0.3063612096E-04       4    7    1         0.1613545178E-02      0.3064801204E-02

    ------------------------------------------------
       NWT REQUIRED            8 OUTER ITERATIONS 
       AND A TOTAL OF         14 INNER ITERATIONS.
    ------------------------------------------------

 NO OUTPUT CONTROL FOR STRESS PERIOD   47   TIME STEP    4
 
 SOLVING FOR HEAD 
                                                   Max.-Head-Change                         Max.-Flux-Residual
  Residual-Control   Outer-Iter.   Inner-Iter.     Column Row Layer    Maximum-Head-Change  Column Row Layer    Maximum-Flux-Residual          L2-NORM 
          0                 1           2             4    7     1       0.1297612858E+00       4    7    1         0.6864318827E+01      0.1237364249E+02
          0                 2           2             4    7     1       0.3677533296E-01       4    7    1         0.1943943085E+01      0.3323088237E+01
          0                 3           2             4    7     1       0.8158581660E-02       4    7    1         0.4328916940E+00      0.6616035102E+00
          0                 4           2             4    7     1       0.4565541212E-02       4    7    1         0.2402679211E+00      0.4679628380E+00
          0                 5           2             4    7     1       0.1300995572E-02       4    7    1         0.6847942342E-01      0.1325710904E+00
          0                 6           2             4    7     1       0.3716542432E-03       4    7    1         0.1956554479E-01      0.3768828802E-01
          0                 7           1             4    7     1       0.1055013645E-03       4    7    1         0.5555197923E-02      0.1063319602E-01
          0                 8           1             4    7     1       0.3048121631E-04       4    7    1         0.1605056540E-02      0.3068205002E-02

    ------------------------------------------------
       NWT REQUIRED            8 OUTER ITERATIONS 
       AND A TOTAL OF         14 INNER ITERATIONS.
    ------------------------------------------------

 NO OUTPUT CONTROL FOR STRESS PERIOD   47   TIME STEP    5
 
 SOLVING FOR HEAD 
                                                   Max.-Head-Change                         Max.-Flux-Residual
  Residual-Control   Outer-Iter.   Inner-Iter.     Column Row Layer    Maximum-Head-Change  Column Row Layer    Maximum-Flux-Residual          L2-NORM 
          0                 1           2             4    7     1       0.1262655962E+00       4    7    1         0.6678589030E+01      0.1209265791E+02
          0                 2           2             4    7     1       0.3578472541E-01       4    7    1         0.1891477001E+01      0.3242494045E+01
          0                 3           2             4    7     1       0.7883439788E-02       4    7    1         0.4183013127E+00      0.6390260227E+00
          0                 4           2             4    7     1       0.4486622777E-02       4    7    1         0.2360860506E+00      0.4616170741E+00
          0                 5           2             4    7     1       0.1278037630E-02       4    7    1         0.6726347566E-01      0.1306851437E+00
          0                 6           2             4    7     1       0.3650331315E-03       4    7    1         0.1921498765E-01      0.3713641466E-01
          0                 7           1             4    7     1       0.1048388168E-03       4    7    1         0.5519219060E-02      0.1062924157E-01
          0                 8           1             4    7     1       0.2987915688E-04       4    7    1         0.1573249840E-02      0.3013903826E-02

    ------------------------------------------------
       NWT REQUIRED            8 OUTER ITERATIONS 
       AND A TOTAL OF         14 INNER ITERATIONS.
    ------------------------------------------------

 NO OUTPUT CONTROL FOR STRESS PERIOD   47   TIME STEP    6
 
 SOLVING FOR HEAD 
                                                   Max.-Head-Change                         Max.-Flux-Residual
  Residual-Control   Outer-Iter.   Inner-Iter.     Column Row Layer    Maximum-Head-Change  Column Row Layer    Maximum-Flux-Residual          L2-NORM 
          0                 1           2             4    7     1       0.1228843161E+00       4    7    1         0.6498929772E+01      0.1182263926E+02
          0                 2           2             4    7     1       0.3483335575E-01       4    7    1         0.1841080846E+01      0.3165433918E+01
          0                 3           2             4    7     1       0.7604250782E-02       4    7    1         0.4035066296E+00      0.6156722309E+00
          0                 4           2             4    7     1       0.4414820578E-02       4    7    1         0.2322774183E+00      0.4560571366E+00
          0                 5           2             4    7     1       0.1259225331E-02       4    7    1         0.6626447634E-01      0.1292881011E+00
          0                 6           2             4    7     1       0.3590730127E-03       4    7    1         0.1889912484E-01      0.3665607662E-01
          0                 7           1             4    7     1       0.1023658666E-03       4    7    1         0.5388801892E-02      0.1039323976E-01
          0                 8           1             4    7     1       0.2917597281E-04       4    7    1         0.1536162731E-02      0.2946962767E-02

    ------------------------------------------------
       NWT REQUIRED            8 OUTER ITERATIONS 
       AND A TOTAL OF         14 INNER ITERATIONS.
    ------------------------------------------------

 NO OUTPUT CONTROL FOR STRESS PERIOD   47   TIME STEP    7
 
 SOLVING FOR HEAD 
                                                   Max.-Head-Change                         Max.-Flux-Residual
  Residual-Control   Outer-Iter.   Inner-Iter.     Column Row Layer    Maximum-Head-Change  Column Row Layer    Maximum-Flux-Residual          L2-NORM 
          0                 1           2             4    7     1       0.1196138077E+00       4    7    1         0.6325150550E+01      0.1156284242E+02
          0                 2           2             4    7     1       0.3390800349E-01       4    7    1         0.1792064581E+01      0.3090305419E+01
          0                 3           2             4    7     1       0.7344601058E-02       4    7    1         0.3897386142E+00      0.5943045759E+00
          0                 4           2             4    7     1       0.4341708469E-02       4    7    1         0.2284023916E+00      0.4502077868E+00
          0                 5           2             4    7     1       0.1236024566E-02       4    7    1         0.6503693655E-01      0.1273039185E+00
          0                 6           2             4    7     1       0.3550521966E-03       4    7    1         0.1868458741E-01      0.3641485525E-01
          0                 7           1             4    7     1       0.1000026734E-03       4    7    1         0.5264158891E-02      0.1016824625E-01
          0                 8           1             4    7     1       0.2904878372E-04       4    7    1         0.1529154481E-02      0.2951914084E-02

    ------------------------------------------------
       NWT REQUIRED            8 OUTER ITERATIONS 
       AND A TOTAL OF         14 INNER ITERATIONS.
    ------------------------------------------------

 NO OUTPUT CONTROL FOR STRESS PERIOD   47   TIME STEP    8
 
 SOLVING FOR HEAD 
                                                   Max.-Head-Change                         Max.-Flux-Residual
  Residual-Control   Outer-Iter.   Inner-Iter.     Column Row Layer    Maximum-Head-Change  Column Row Layer    Maximum-Flux-Residual          L2-NORM 
          0                 1           2             4    7     1       0.1164507654E+00       4    7    1         0.6157078587E+01      0.1131204241E+02
          0                 2           2             4    7     1       0.3301667952E-01       4    7    1         0.1744846383E+01      0.3018081902E+01
          0                 3           2             4    7     1       0.7087084224E-02       4    7    1         0.3760887559E+00      0.5728748193E+00
          0                 4           2             4    7     1       0.4273021539E-02       4    7    1         0.2247601651E+00      0.4448064574E+00
          0                 5           2             4    7     1       0.1219182552E-02       4    7    1         0.6414184405E-01      0.1260912168E+00
          0                 6           2             4    7     1       0.3477633938E-03       4    7    1         0.1829967727E-01      0.3574791371E-01
          0                 7           1             4    7     1       0.9917118414E-04       4    7    1         0.5219491173E-02      0.1013530104E-01

    ------------------------------------------------
       NWT REQUIRED            7 OUTER ITERATIONS 
       AND A TOTAL OF         13 INNER ITERATIONS.
    ------------------------------------------------

 NO OUTPUT CONTROL FOR STRESS PERIOD   47   TIME STEP    9
 
 SOLVING FOR HEAD 
                                                   Max.-Head-Change                         Max.-Flux-Residual
  Residual-Control   Outer-Iter.   Inner-Iter.     Column Row Layer    Maximum-Head-Change  Column Row Layer    Maximum-Flux-Residual          L2-NORM 
          0                 1           2             4    7     1       0.1133921068E+00       4    7    1         0.5994551997E+01      0.1107035426E+02
          0                 2           2             4    7     1       0.3215322323E-01       4    7    1         0.1699104534E+01      0.2948051673E+01
          0                 3           2             4    7     1       0.6840931698E-02       4    7    1         0.3630387779E+00      0.5524854621E+00
          0                 4           2             4    7     1       0.4205692892E-02       4    7    1         0.2211907646E+00      0.4394631148E+00
          0                 5           2             4    7     1       0.1200169899E-02       4    7    1         0.6313449962E-01      0.1245729431E+00
          0                 6           2             4    7     1       0.3423937638E-03       4    7    1         0.1801519665E-01      0.3531656654E-01
          0                 7           1             4    7     1       0.9765443911E-04       4    7    1         0.5139145042E-02      0.1001276243E-01

    ------------------------------------------------
       NWT REQUIRED            7 OUTER ITERATIONS 
       AND A TOTAL OF         13 INNER ITERATIONS.
    ------------------------------------------------

 NO OUTPUT CONTROL FOR STRESS PERIOD   47   TIME STEP   10
 
 SOLVING FOR HEAD 
                                                   Max.-Head-Change                         Max.-Flux-Residual
  Residual-Control   Outer-Iter.   Inner-Iter.     Column Row Layer    Maximum-Head-Change  Column Row Layer    Maximum-Flux-Residual          L2-NORM 
          0                 1           2             4    7     1       0.1104337541E+00       4    7    1         0.5837356298E+01      0.1083728401E+02
          0                 2           2             4    7     1       0.3131795646E-01       4    7    1         0.1654856072E+01      0.2880290964E+01
          0                 3           2             4    7     1       0.6603243632E-02       4    7    1         0.3504371743E+00      0.5328038885E+00
          0                 4           2             4    7     1       0.4140382696E-02       4    7    1         0.2177285374E+00      0.4342660132E+00
          0                 5           2             4    7     1       0.1181726759E-02       4    7    1         0.6215684511E-01      0.1230960173E+00
          0                 6           2             4    7     1       0.3371846275E-03       4    7    1         0.1773910092E-01      0.3489696315E-01
          0                 7           1             4    7     1       0.9618292792E-04       4    7    1         0.5061160266E-02      0.9893565658E-02

    ------------------------------------------------
       NWT REQUIRED            7 OUTER ITERATIONS 
       AND A TOTAL OF         13 INNER ITERATIONS.
    ------------------------------------------------

 NO OUTPUT CONTROL FOR STRESS PERIOD   47   TIME STEP   11
 
 SOLVING FOR HEAD 
                                                   Max.-Head-Change                         Max.-Flux-Residual
  Residual-Control   Outer-Iter.   Inner-Iter.     Column Row Layer    Maximum-Head-Change  Column Row Layer    Maximum-Flux-Residual          L2-NORM 
          0                 1           2             4    7     1       0.1075725718E+00       4    7    1         0.5685327459E+01      0.1061244221E+02
          0                 2           2             4    7     1       0.3051014249E-01       4    7    1         0.1612060625E+01      0.2814707516E+01
          0                 3           2             4    7     1       0.6373490887E-02       4    7    1         0.3382563391E+00      0.5137739253E+00
          0                 4           2             4    7     1       0.4077130008E-02       4    7    1         0.2143754788E+00      0.4292229097E+00
          0                 5           2             4    7     1       0.1160215566E-02       4    7    1         0.6101954415E-01      0.1212007782E+00
          0                 6           2             4    7     1       0.3328467589E-03       4    7    1         0.1750858835E-01      0.3458164533E-01
          0                 7           1             4    7     1       0.9685041114E-04       4    7    1         0.5094864684E-02      0.1004292411E-01

    ------------------------------------------------
       NWT REQUIRED            7 OUTER ITERATIONS 
       AND A TOTAL OF         13 INNER ITERATIONS.
    ------------------------------------------------

 NO OUTPUT CONTROL FOR STRESS PERIOD   47   TIME STEP   12
 
 SOLVING FOR HEAD 
                                                   Max.-Head-Change                         Max.-Flux-Residual
  Residual-Control   Outer-Iter.   Inner-Iter.     Column Row Layer    Maximum-Head-Change  Column Row Layer    Maximum-Flux-Residual          L2-NORM 
          0                 1           2             4    7     1       0.1048052868E+00       4    7    1         0.5538291568E+01      0.1039545242E+02
          0                 2           2             4    7     1       0.2972758745E-01       4    7    1         0.1570605077E+01      0.2751086129E+01
          0                 3           2             4    7     1       0.6154104011E-02       4    7    1         0.3266228949E+00      0.4956874363E+00
          0                 4           2             4    7     1       0.4014804115E-02       4    7    1         0.2110725645E+00      0.4241920620E+00
          0                 5           2             4    7     1       0.1142387045E-02       4    7    1         0.6007495878E-01      0.1197430655E+00
          0                 6           2             4    7     1       0.3271481218E-03       4    7    1         0.1720721303E-01      0.3408408264E-01
          0                 7           1             4    7     1       0.9611535267E-04       4    7    1         0.5055390677E-02      0.1001311630E-01

    ------------------------------------------------
       NWT REQUIRED            7 OUTER ITERATIONS 
       AND A TOTAL OF         13 INNER ITERATIONS.
    ------------------------------------------------

 NO OUTPUT CONTROL FOR STRESS PERIOD   47   TIME STEP   13
 
 SOLVING FOR HEAD 
                                                   Max.-Head-Change                         Max.-Flux-Residual
  Residual-Control   Outer-Iter.   Inner-Iter.     Column Row Layer    Maximum-Head-Change  Column Row Layer    Maximum-Flux-Residual          L2-NORM 
          0                 1           2             4    7     1       0.1021285287E+00       4    7    1         0.5396070829E+01      0.1018595362E+02
          0                 2           2             4    7     1       0.2897303044E-01       4    7    1         0.1530631365E+01      0.2689787223E+01
          0                 3           2             4    7     1       0.5937491442E-02       4    7    1         0.3151404848E+00      0.4776642523E+00
          0                 4           2             4    7     1       0.3955914500E-02       4    7    1         0.2079506743E+00      0.4194991310E+00
          0                 5           2             4    7     1       0.1129625610E-02       4    7    1         0.5939535188E-01      0.1188994415E+00
          0                 6           2             4    7     1       0.3224665504E-03       4    7    1         0.1695910703E-01      0.3370461970E-01
          0                 7           1             4    7     1       0.9202456708E-04       4    7    1         0.4840809570E-02      0.9554839709E-02

    ------------------------------------------------
       NWT REQUIRED            7 OUTER ITERATIONS 
       AND A TOTAL OF         13 INNER ITERATIONS.
    ------------------------------------------------

 NO OUTPUT CONTROL FOR STRESS PERIOD   47   TIME STEP   14
 
 SOLVING FOR HEAD 
                                                   Max.-Head-Change                         Max.-Flux-Residual
  Residual-Control   Outer-Iter.   Inner-Iter.     Column Row Layer    Maximum-Head-Change  Column Row Layer    Maximum-Flux-Residual          L2-NORM 
          0                 1           2             4    7     1       0.9953930428E-01       4    7    1         0.5258506836E+01      0.9983619835E+01
          0                 2           2             4    7     1       0.2824193419E-01       4    7    1         0.1491902179E+01      0.2630284537E+01
          0                 3           2             4    7     1       0.5729728211E-02       4    7    1         0.3041260269E+00      0.4604238964E+00
          0                 4           2             4    7     1       0.3898526333E-02       4    7    1         0.2049088222E+00      0.4148983939E+00
          0                 5           2             4    7     1       0.1112185409E-02       4    7    1         0.5847198251E-01      0.1174356430E+00
          0                 6           2             4    7     1       0.3187619792E-03       4    7    1         0.1676207778E-01      0.3344464938E-01
          0                 7           1             4    7     1       0.9086847481E-04       4    7    1         0.4779446749E-02      0.9466376681E-02

    ------------------------------------------------
       NWT REQUIRED            7 OUTER ITERATIONS 
       AND A TOTAL OF         13 INNER ITERATIONS.
    ------------------------------------------------

 NO OUTPUT CONTROL FOR STRESS PERIOD   47   TIME STEP   15
 
 SOLVING FOR HEAD 
                                                   Max.-Head-Change                         Max.-Flux-Residual
  Residual-Control   Outer-Iter.   Inner-Iter.     Column Row Layer    Maximum-Head-Change  Column Row Layer    Maximum-Flux-Residual          L2-NORM 
          0                 1           2             4    7     1       0.9703472216E-01       4    7    1         0.5125447140E+01      0.9788116056E+01
          0                 2           2             4    7     1       0.2753470153E-01       4    7    1         0.1454438313E+01      0.2572650268E+01
          0                 3           2             4    7     1       0.5528913012E-02       4    7    1         0.2934818584E+00      0.4437506481E+00
          0                 4           2             4    7     1       0.3842878261E-02       4    7    1         0.2019596137E+00      0.4104236178E+00
          0                 5           2             4    7     1       0.1097695081E-02       4    7    1         0.5770325745E-01      0.1163196771E+00
          0                 6           2             4    7     1       0.3134457634E-03       4    7    1         0.1648112135E-01      0.3297156848E-01
          0                 7           1             4    7     1       0.8947567556E-04       4    7    1         0.4705767224E-02      0.9346571458E-02

    ------------------------------------------------
       NWT REQUIRED            7 OUTER ITERATIONS 
       AND A TOTAL OF         13 INNER ITERATIONS.
    ------------------------------------------------

 NO OUTPUT CONTROL FOR STRESS PERIOD   47   TIME STEP   16
 
 SOLVING FOR HEAD 
                                                   Max.-Head-Change                         Max.-Flux-Residual
  Residual-Control   Outer-Iter.   Inner-Iter.     Column Row Layer    Maximum-Head-Change  Column Row Layer    Maximum-Flux-Residual          L2-NORM 
          0                 1           2             4    7     1       0.9461155969E-01       4    7    1         0.4996720445E+01      0.9599143748E+01
          0                 2           2             4    7     1       0.2684567716E-01       4    7    1         0.1417943797E+01      0.2516232503E+01
          0                 3           2             4    7     1       0.5343262765E-02       4    7    1         0.2836324581E+00      0.4286106496E+00
          0                 4           2             4    7     1       0.3786247284E-02       4    7    1         0.1989606618E+00      0.4057281261E+00
          0                 5           2             4    7     1       0.1079132534E-02       4    7    1         0.5672216534E-01      0.1146620058E+00
          0                 6           2             4    7     1       0.3090617665E-03       4    7    1         0.1624885352E-01      0.3261251934E-01
          0                 7           1             4    7     1       0.8955562556E-04       4    7    1         0.4708979039E-02      0.9411756247E-02

    ------------------------------------------------
       NWT REQUIRED            7 OUTER ITERATIONS 
       AND A TOTAL OF         13 INNER ITERATIONS.
    ------------------------------------------------

 NO OUTPUT CONTROL FOR STRESS PERIOD   47   TIME STEP   17
 
 SOLVING FOR HEAD 
                                                   Max.-Head-Change                         Max.-Flux-Residual
  Residual-Control   Outer-Iter.   Inner-Iter.     Column Row Layer    Maximum-Head-Change  Column Row Layer    Maximum-Flux-Residual          L2-NORM 
          0                 1           2             4    7     1       0.9226699588E-01       4    7    1         0.4872176982E+01      0.9416416651E+01
          0                 2           2             4    7     1       0.2618830220E-01       4    7    1         0.1383119755E+01      0.2462709377E+01
          0                 3           2             4    7     1       0.5146852719E-02       4    7    1         0.2732270682E+00      0.4119897272E+00
          0                 4           2             4    7     1       0.3736725112E-02       4    7    1         0.1963341481E+00      0.4018565035E+00
          0                 5           2             4    7     1       0.1067705159E-02       4    7    1         0.5611396785E-01      0.1138844347E+00
          0                 6           2             4    7     1       0.3049717924E-03       4    7    1         0.1603212273E-01      0.3227955373E-01
          0                 7           1             4    7     1       0.8708089346E-04       4    7    1         0.4578890681E-02      0.9149951940E-02

    ------------------------------------------------
       NWT REQUIRED            7 OUTER ITERATIONS 
       AND A TOTAL OF         13 INNER ITERATIONS.
    ------------------------------------------------

 NO OUTPUT CONTROL FOR STRESS PERIOD   47   TIME STEP   18
 
 SOLVING FOR HEAD 
                                                   Max.-Head-Change                         Max.-Flux-Residual
  Residual-Control   Outer-Iter.   Inner-Iter.     Column Row Layer    Maximum-Head-Change  Column Row Layer    Maximum-Flux-Residual          L2-NORM 
          0                 1           2             4    7     1       0.8999854316E-01       4    7    1         0.4751685269E+01      0.9239663025E+01
          0                 2           2             4    7     1       0.2554762905E-01       4    7    1         0.1349185581E+01      0.2410270680E+01
          0                 3           2             4    7     1       0.4964951653E-02       4    7    1         0.2635851694E+00      0.3968409184E+00
          0                 4           2             4    7     1       0.3686259534E-02       4    7    1         0.1936589144E+00      0.3977741734E+00
          0                 5           2             4    7     1       0.1053448644E-02       4    7    1         0.5535816626E-01      0.1127241281E+00
          0                 6           2             4    7     1       0.3009408806E-03       4    7    1         0.1581844604E-01      0.3194952204E-01
          0                 7           1             4    7     1       0.8594411788E-04       4    7    1         0.4518636570E-02      0.9056492123E-02

    ------------------------------------------------
       NWT REQUIRED            7 OUTER ITERATIONS 
       AND A TOTAL OF         13 INNER ITERATIONS.
    ------------------------------------------------

 NO OUTPUT CONTROL FOR STRESS PERIOD   47   TIME STEP   19
 
 SOLVING FOR HEAD 
                                                   Max.-Head-Change                         Max.-Flux-Residual
  Residual-Control   Outer-Iter.   Inner-Iter.     Column Row Layer    Maximum-Head-Change  Column Row Layer    Maximum-Flux-Residual          L2-NORM 
          0                 1           2             4    7     1       0.8780314245E-01       4    7    1         0.4635082489E+01      0.9068620040E+01
          0                 2           2             4    7     1       0.2492754220E-01       4    7    1         0.1316343323E+01      0.2359433372E+01
          0                 3           2             4    7     1       0.4788932422E-02       4    7    1         0.2542555553E+00      0.3821681438E+00
          0                 4           2             4    7     1       0.3637377151E-02       4    7    1         0.1910686075E+00      0.3938111975E+00
          0                 5           2             4    7     1       0.1039634669E-02       4    7    1         0.5462622075E-01      0.1115973108E+00
          0                 6           2             4    7     1       0.2970390602E-03       4    7    1         0.1561172763E-01      0.3162955893E-01
          0                 7           1             4    7     1       0.8483899961E-04       4    7    1         0.4460095696E-02      0.8965285228E-02

    ------------------------------------------------
       NWT REQUIRED            7 OUTER ITERATIONS 
       AND A TOTAL OF         13 INNER ITERATIONS.
    ------------------------------------------------

 NO OUTPUT CONTROL FOR STRESS PERIOD   47   TIME STEP   20
 
 SOLVING FOR HEAD 
                                                   Max.-Head-Change                         Max.-Flux-Residual
  Residual-Control   Outer-Iter.   Inner-Iter.     Column Row Layer    Maximum-Head-Change  Column Row Layer    Maximum-Flux-Residual          L2-NORM 
          0                 1           2             4    7     1       0.8567838120E-01       4    7    1         0.4522240714E+01      0.8903038236E+01
          0                 2           2             4    7     1       0.2432735852E-01       4    7    1         0.1284556874E+01      0.2310138769E+01
          0                 3           2             4    7     1       0.4618590514E-02       4    7    1         0.2452273619E+00      0.3679544543E+00
          0                 4           2             4    7     1       0.3590024678E-02       4    7    1         0.1885595417E+00      0.3899625662E+00
          0                 5           2             4    7     1       0.1026254059E-02       4    7    1         0.5391728285E-01      0.1105033152E+00
          0                 6           2             4    7     1       0.2932574882E-03       4    7    1         0.1541139386E-01      0.3131867239E-01
          0                 7           1             4    7     1       0.8376986382E-04       4    7    1         0.4403463157E-02      0.8876922625E-02

    ------------------------------------------------
       NWT REQUIRED            7 OUTER ITERATIONS 
       AND A TOTAL OF         13 INNER ITERATIONS.
    ------------------------------------------------

 NO OUTPUT CONTROL FOR STRESS PERIOD   47   TIME STEP   21
 
 SOLVING FOR HEAD 
                                                   Max.-Head-Change                         Max.-Flux-Residual
  Residual-Control   Outer-Iter.   Inner-Iter.     Column Row Layer    Maximum-Head-Change  Column Row Layer    Maximum-Flux-Residual          L2-NORM 
          0                 1           2             4    7     1       0.8362179945E-01       4    7    1         0.4413028971E+01      0.8742695826E+01
          0                 2           2             4    7     1       0.2374638409E-01       4    7    1         0.1253789463E+01      0.2262329242E+01
          0                 3           2             4    7     1       0.4453725466E-02       4    7    1         0.2364899549E+00      0.3541840785E+00
          0                 4           2             4    7     1       0.3544152139E-02       4    7    1         0.1861290617E+00      0.3862252019E+00
          0                 5           2             4    7     1       0.1013291030E-02       4    7    1         0.5323051560E-01      0.1094409681E+00
          0                 6           2             4    7     1       0.2895915168E-03       4    7    1         0.1521719850E-01      0.3101650902E-01
          0                 7           1             4    7     1       0.8273083076E-04       4    7    1         0.4348430983E-02      0.8790723144E-02

    ------------------------------------------------
       NWT REQUIRED            7 OUTER ITERATIONS 
       AND A TOTAL OF         13 INNER ITERATIONS.
    ------------------------------------------------

 NO OUTPUT CONTROL FOR STRESS PERIOD   47   TIME STEP   22
 
 SOLVING FOR HEAD 
                                                   Max.-Head-Change                         Max.-Flux-Residual
  Residual-Control   Outer-Iter.   Inner-Iter.     Column Row Layer    Maximum-Head-Change  Column Row Layer    Maximum-Flux-Residual          L2-NORM 
          0                 1           2             4    7     1       0.8163089059E-01       4    7    1         0.4307314043E+01      0.8587370137E+01
          0                 2           2             4    7     1       0.2317916499E-01       4    7    1         0.1223755828E+01      0.2215373950E+01
          0                 3           2             4    7     1       0.4302635283E-02       4    7    1         0.2284762825E+00      0.3418229981E+00
          0                 4           2             4    7     1       0.3497036942E-02       4    7    1         0.1836350697E+00      0.3822507989E+00
          0                 5           2             4    7     1       0.9987281399E-03       4    7    1         0.5246058609E-01      0.1081550553E+00
          0                 6           2             4    7     1       0.2866950734E-03       4    7    1         0.1506325175E-01      0.3080773268E-01
          0                 7           1             4    7     1       0.8191830314E-04       4    7    1         0.4305251171E-02      0.8731635484E-02

    ------------------------------------------------
       NWT REQUIRED            7 OUTER ITERATIONS 
       AND A TOTAL OF         13 INNER ITERATIONS.
    ------------------------------------------------

 NO OUTPUT CONTROL FOR STRESS PERIOD   47   TIME STEP   23
 
 SOLVING FOR HEAD 
                                                   Max.-Head-Change                         Max.-Flux-Residual
  Residual-Control   Outer-Iter.   Inner-Iter.     Column Row Layer    Maximum-Head-Change  Column Row Layer    Maximum-Flux-Residual          L2-NORM 
          0                 1           2             4    7     1       0.7970337944E-01       4    7    1         0.4204974867E+01      0.8436849757E+01
          0                 2           2             4    7     1       0.2263615885E-01       4    7    1         0.1195009316E+01      0.2170549201E+01
          0                 3           2             4    7     1       0.4144903061E-02       4    7    1         0.2201234910E+00      0.3284914448E+00
          0                 4           2             4    7     1       0.3454876088E-02       4    7    1         0.1814018672E+00      0.3788440951E+00
          0                 5           2             4    7     1       0.9863677350E-03       4    7    1         0.5180632269E-01      0.1071298776E+00
          0                 6           2             4    7     1       0.2836365133E-03       4    7    1         0.1490106886E-01      0.3057211084E-01
          0                 7           1             4    7     1       0.8105470148E-04       4    7    1         0.4259469628E-02      0.8664564782E-02

    ------------------------------------------------
       NWT REQUIRED            7 OUTER ITERATIONS 
       AND A TOTAL OF         13 INNER ITERATIONS.
    ------------------------------------------------

 NO OUTPUT CONTROL FOR STRESS PERIOD   47   TIME STEP   24
 
 SOLVING FOR HEAD 
                                                   Max.-Head-Change                         Max.-Flux-Residual
  Residual-Control   Outer-Iter.   Inner-Iter.     Column Row Layer    Maximum-Head-Change  Column Row Layer    Maximum-Flux-Residual          L2-NORM 
          0                 1           2             4    7     1       0.7783621212E-01       4    7    1         0.4105866824E+01      0.8290851019E+01
          0                 2           2             4    7     1       0.2211149806E-01       4    7    1         0.1167227059E+01      0.2127237633E+01
          0                 3           2             4    7     1       0.3989976429E-02       4    7    1         0.2119185161E+00      0.3153511233E+00
          0                 4           2             4    7     1       0.3414734435E-02       4    7    1         0.1792741975E+00      0.3756251316E+00
          0                 5           2             4    7     1       0.9766980515E-03       4    7    1         0.5129250686E-01      0.1064266921E+00
          0                 6           2             4    7     1       0.2792451233E-03       4    7    1         0.1466931479E-01      0.3015985618E-01
          0                 7           1             4    7     1       0.7980713696E-04       4    7    1         0.4193627459E-02      0.8547575584E-02

    ------------------------------------------------
       NWT REQUIRED            7 OUTER ITERATIONS 
       AND A TOTAL OF         13 INNER ITERATIONS.
    ------------------------------------------------

 NO OUTPUT CONTROL FOR STRESS PERIOD   47   TIME STEP   25
 
 SOLVING FOR HEAD 
                                                   Max.-Head-Change                         Max.-Flux-Residual
  Residual-Control   Outer-Iter.   Inner-Iter.     Column Row Layer    Maximum-Head-Change  Column Row Layer    Maximum-Flux-Residual          L2-NORM 
          0                 1           2             4    7     1       0.7602780153E-01       4    7    1         0.4009880634E+01      0.8149236091E+01
          0                 2           2             4    7     1       0.2158910168E-01       4    7    1         0.1140115882E+01      0.2084812170E+01
          0                 3           2             4    7     1       0.3838033312E-02       4    7    1         0.2040125381E+00      0.3031150806E+00
          0                 4           2             4    7     1       0.3371283261E-02       4    7    1         0.1770127864E+00      0.3722871160E+00
          0                 5           2             4    7     1       0.9611352233E-03       4    7    1         0.5048187986E-01      0.1050959653E+00
          0                 6           2             4    7     1       0.2751861520E-03       4    7    1         0.1445786202E-01      0.2983749771E-01
          0                 7           1             4    7     1       0.7951338367E-04       4    7    1         0.4178399136E-02      0.8567605676E-02

    ------------------------------------------------
       NWT REQUIRED            7 OUTER ITERATIONS 
       AND A TOTAL OF         13 INNER ITERATIONS.
    ------------------------------------------------

 NO OUTPUT CONTROL FOR STRESS PERIOD   47   TIME STEP   26
 
 SOLVING FOR HEAD 
                                                   Max.-Head-Change                         Max.-Flux-Residual
  Residual-Control   Outer-Iter.   Inner-Iter.     Column Row Layer    Maximum-Head-Change  Column Row Layer    Maximum-Flux-Residual          L2-NORM 
          0                 1           2             4    7     1       0.7423168432E-01       4    7    1         0.3916057554E+01      0.8230570816E+01
          0                 2           2             4    7     1       0.2108548148E-01       4    7    1         0.1113140339E+01      0.2160134802E+01
          0                 3           2             4    7     1       0.3699114746E-02       4    7    1         0.1965013108E+00      0.3355358260E+00
          0                 4           2             4    7     1       0.3333484901E-02       4    7    1         0.1749482936E+00      0.3870404978E+00
          0                 5           2             5    8     1       0.1032333562E-02       5    8    1         0.5565469978E-01      0.1128729305E+00
          0                 6           2             5    8     1       0.3325497260E-03       5    8    1         0.1797367615E-01      0.3344601466E-01
          0                 7           1             5    8     1       0.1061532307E-03       5    8    1         0.5749952303E-02      0.9886038312E-02
          0                 8           1             5    8     1       0.3379867480E-04       5    8    1         0.1834184936E-02      0.2938817556E-02

    ------------------------------------------------
       NWT REQUIRED            8 OUTER ITERATIONS 
       AND A TOTAL OF         14 INNER ITERATIONS.
    ------------------------------------------------

 NO OUTPUT CONTROL FOR STRESS PERIOD   47   TIME STEP   27
 
 SOLVING FOR HEAD 
                                                   Max.-Head-Change                         Max.-Flux-Residual
  Residual-Control   Outer-Iter.   Inner-Iter.     Column Row Layer    Maximum-Head-Change  Column Row Layer    Maximum-Flux-Residual          L2-NORM 
          0                 1           2             4    7     1       0.7251917078E-01       4    7    1         0.3824205240E+01      0.8334366586E+01
          0                 2           2             4    7     1       0.2061001151E-01       4    7    1         0.1087611667E+01      0.2211738069E+01
          0                 3           2             5    8     1       0.4090859708E-02       5    8    1         0.2222515427E+00      0.3595429640E+00
          0                 4           2             5    8     1       0.3530748744E-02       5    8    1         0.1902418157E+00      0.3933191325E+00
          0                 5           2             5    8     1       0.1131192257E-02       5    8    1         0.6110818198E-01      0.1154729950E+00
          0                 6           2             5    8     1       0.3612914430E-03       5    8    1         0.1956190686E-01      0.3409580136E-01
          0                 7           1             5    8     1       0.1150881678E-03       5    8    1         0.6243431090E-02      0.1012499954E-01
          0                 8           1             5    8     1       0.3657803515E-04       5    8    1         0.1987618309E-02      0.3023748840E-02

    ------------------------------------------------
       NWT REQUIRED            8 OUTER ITERATIONS 
       AND A TOTAL OF         14 INNER ITERATIONS.
    ------------------------------------------------

 NO OUTPUT CONTROL FOR STRESS PERIOD   47   TIME STEP   28
 
 SOLVING FOR HEAD 
                                                   Max.-Head-Change                         Max.-Flux-Residual
  Residual-Control   Outer-Iter.   Inner-Iter.     Column Row Layer    Maximum-Head-Change  Column Row Layer    Maximum-Flux-Residual          L2-NORM 
          0                 1           2             4    7     1       0.7089052621E-01       4    7    1         0.3736841909E+01      0.8182637637E+01
          0                 2           2             4    7     1       0.2015338375E-01       4    7    1         0.1063224102E+01      0.2159972496E+01
          0                 3           2             5    8     1       0.3801123430E-02       5    8    1         0.2063121436E+00      0.3428654892E+00
          0                 4           2             5    8     1       0.3438383067E-02       5    8    1         0.1851676663E+00      0.3885134569E+00
          0                 5           2             5    8     1       0.1101070461E-02       5    8    1         0.5945515845E-01      0.1138102302E+00
          0                 6           2             5    8     1       0.3530445605E-03       5    8    1         0.1910773921E-01      0.3373084050E-01
          0                 7           1             5    8     1       0.1123942863E-03       5    8    1         0.6095304964E-02      0.9992214258E-02
          0                 8           1             5    8     1       0.3585429608E-04       5    8    1         0.1947660185E-02      0.2996426260E-02

    ------------------------------------------------
       NWT REQUIRED            8 OUTER ITERATIONS 
       AND A TOTAL OF         14 INNER ITERATIONS.
    ------------------------------------------------

 NO OUTPUT CONTROL FOR STRESS PERIOD   47   TIME STEP   29
 
 SOLVING FOR HEAD 
                                                   Max.-Head-Change                         Max.-Flux-Residual
  Residual-Control   Outer-Iter.   Inner-Iter.     Column Row Layer    Maximum-Head-Change  Column Row Layer    Maximum-Flux-Residual          L2-NORM 
          0                 1           2             4    7     1       0.6933376517E-01       4    7    1         0.3653490790E+01      0.8039103998E+01
          0                 2           2             4    7     1       0.1971999897E-01       4    7    1         0.1040112545E+01      0.2111539087E+01
          0                 3           2             5    8     1       0.3531026568E-02       5    8    1         0.1914776251E+00      0.3264530945E+00
          0                 4           2             5    8     1       0.3356236299E-02       5    8    1         0.1806556920E+00      0.3842493741E+00
          0                 5           2             5    8     1       0.1076540180E-02       5    8    1         0.5810620491E-01      0.1126281578E+00
          0                 6           2             5    8     1       0.3441739948E-03       5    8    1         0.1862174743E-01      0.3320134276E-01
          0                 7           1             5    8     1       0.1097265448E-03       5    8    1         0.5948961372E-02      0.9843278419E-02
          0                 8           1             5    8     1       0.3489858614E-04       5    8    1         0.1895381597E-02      0.2934920413E-02

    ------------------------------------------------
       NWT REQUIRED            8 OUTER ITERATIONS 
       AND A TOTAL OF         14 INNER ITERATIONS.
    ------------------------------------------------

 NO OUTPUT CONTROL FOR STRESS PERIOD   47   TIME STEP   30



 STREAM LISTING     PERIOD     47   STEP       30

 LAYER ROW COL. STREAM  RCH.  FLOW INTO     FLOW TO   FLOW OUT OF   OVRLND.     DIRECT     STREAM       STREAM     STREAM     STREAM   STREAMBED  STREAMBED
                SEG.NO.  NO.  STRM. RCH.    AQUIFER    STRM. RCH.    RUNOFF     PRECIP       ET          HEAD       DEPTH      WIDTH   CONDCTNC.   GRADIENT

   1    1    1     1     1    1.5942E+01  1.9373E-01   1.5748E+01  0.000E+00  0.000E+00  0.000E+00  1.09408E+03  1.028E+00  1.069E+01  4.809E-02  1.343E+00
   1    2    2     1     2    1.5748E+01  2.9868E-01   1.5450E+01  0.000E+00  0.000E+00  0.000E+00  1.08908E+03  1.024E+00  1.060E+01  7.423E-02  1.341E+00
   1    3    3     1     3    1.5450E+01  2.5341E-01   1.5196E+01  0.000E+00  0.000E+00  0.000E+00  1.08344E+03  1.018E+00  1.051E+01  6.306E-02  1.339E+00
   1    3    4     1     4    1.5196E+01  2.3228E-01   1.4964E+01  0.000E+00  0.000E+00  0.000E+00  1.07842E+03  1.014E+00  1.043E+01  5.787E-02  1.338E+00
   1    4    5     2     1    1.2964E+01  2.9708E-01   1.2667E+01  0.000E+00  0.000E+00  0.000E+00  1.07274E+03  8.087E-01  1.200E+01  7.800E-02  1.270E+00
   1    5    6     2     2    1.2667E+01  2.2792E-01   1.2439E+01  0.000E+00  0.000E+00  0.000E+00  1.06731E+03  7.987E-01  1.200E+01  6.000E-02  1.266E+00
   1    6    6     2     3    1.2439E+01  2.2740E-01   1.2211E+01  0.000E+00  0.000E+00  0.000E+00  1.06258E+03  7.900E-01  1.200E+01  6.000E-02  1.263E+00
   1    7    6     2     4    1.2211E+01  2.2687E-01   1.1985E+01  0.000E+00  0.000E+00  0.000E+00  1.05786E+03  7.812E-01  1.200E+01  6.000E-02  1.260E+00
   1    8    6     2     5    1.1985E+01  2.2634E-01   1.1758E+01  0.000E+00  0.000E+00  0.000E+00  1.05313E+03  7.724E-01  1.200E+01  6.000E-02  1.257E+00
   1    3    5     3     1    2.0000E+00  2.8252E-01   1.7175E+00  0.000E+00  0.000E+00  0.000E+00  1.07555E+03  1.909E+00  9.636E+00  7.227E-02  1.955E+00
   1    3    6     3     2    1.7175E+00  2.4905E-01   1.4684E+00  0.000E+00  0.000E+00  0.000E+00  1.07264E+03  1.727E+00  8.909E+00  6.682E-02  1.864E+00
   1    3    7     3     3    1.4684E+00  1.9718E-01   1.2712E+00  0.000E+00  0.000E+00  0.000E+00  1.06987E+03  1.555E+00  8.218E+00  5.547E-02  1.777E+00
   1    4    8     3     4    1.2712E+00  2.2567E-01   1.0456E+00  0.000E+00  0.000E+00  0.000E+00  1.06682E+03  1.364E+00  7.455E+00  6.709E-02  1.682E+00
   1    5    8     3     5    1.0456E+00  1.5790E-01   8.8768E-01  0.000E+00  0.000E+00  0.000E+00  1.06362E+03  1.164E+00  6.655E+00  4.991E-02  1.582E+00
   1    6    8     3     6    8.8768E-01  5.5980E-02   8.3170E-01  0.000E+00  0.000E+00  0.000E+00  1.06158E+03  1.036E+00  6.145E+00  1.844E-02  1.518E+00
   1    5   10     4     1    1.0000E+01  9.0919E-02   9.9091E+00  0.000E+00  0.000E+00  0.000E+00  1.07836E+03  6.368E-01  1.000E+01  2.500E-02  1.212E+00
   1    5    9     4     2    9.9091E+00  1.8158E-01   9.7275E+00  0.000E+00  0.000E+00  0.000E+00  1.07154E+03  6.315E-01  1.000E+01  5.000E-02  1.211E+00
   1    6    8     4     3    9.7275E+00  1.2689E-01   9.6006E+00  0.000E+00  0.000E+00  0.000E+00  1.06381E+03  6.256E-01  1.000E+01  3.500E-02  1.209E+00
   1    6    8     5     1    1.0432E+01  2.2686E-01   1.0205E+01  0.000E+00  0.000E+00  0.000E+00  1.05868E+03  6.790E-01  1.542E+01  6.166E-02  1.226E+00
   1    7    7     5     2    1.0205E+01  2.7894E-01   9.9265E+00  0.000E+00  0.000E+00  0.000E+00  1.05417E+03  6.732E-01  1.519E+01  7.594E-02  1.224E+00
   1    8    7     5     3    9.9265E+00  1.9221E-01   9.7343E+00  0.000E+00  0.000E+00  0.000E+00  1.04992E+03  6.676E-01  1.497E+01  5.241E-02  1.223E+00
   1    8    6     5     4    9.7343E+00  1.3577E-01   9.5985E+00  0.000E+00  0.000E+00  0.000E+00  1.04691E+03  6.637E-01  1.482E+01  3.706E-02  1.221E+00
   1    9    6     6     1    2.0639E+01  2.4507E-01   2.0394E+01  0.000E+00  0.000E+00  0.000E+00  1.04381E+03  1.084E+00  1.200E+01  6.000E-02  1.361E+00
   1   10    7     6     2    2.0394E+01  2.4460E-01   2.0149E+01  0.000E+00  0.000E+00  0.000E+00  1.03926E+03  1.077E+00  1.200E+01  6.000E-02  1.359E+00
   1   11    7     6     3    2.0149E+01  2.4413E-01   1.9905E+01  0.000E+00  0.000E+00  0.000E+00  1.03471E+03  1.069E+00  1.200E+01  6.000E-02  1.356E+00
   1   12    7     6     4    1.9905E+01  2.4366E-01   1.9661E+01  0.000E+00  0.000E+00  0.000E+00  1.03015E+03  1.061E+00  1.200E+01  6.000E-02  1.354E+00
   1   13    7     6     5    1.9661E+01  1.0671E-03   1.9660E+01  0.000E+00  0.000E+00  0.000E+00  1.02697E+03  1.057E+00  1.200E+01  2.400E-02  1.482E-02
   1   14    9     7     1    1.5000E+02  1.3542E+00   1.4865E+02  0.000E+00  0.000E+00  0.000E+00  1.03987E+03  2.288E+00  5.529E+01  5.593E-01  8.071E-01
   1   13    8     7     2    1.4865E+02  1.8859E+00   1.4676E+02  0.000E+00  0.000E+00  0.000E+00  1.03478E+03  2.279E+00  5.526E+01  6.148E-01  1.023E+00
   1   13    7     7     3    1.4676E+02  1.5454E+00   1.4521E+02  0.000E+00  0.000E+00  0.000E+00  1.02969E+03  2.270E+00  5.521E+01  5.584E-01  9.225E-01
   1   13    6     8     1    1.6487E+02  9.6662E-01   1.6391E+02  0.000E+00  0.000E+00  0.000E+00  1.02479E+03  2.915E+00  4.227E+01  4.308E-01  7.480E-01
   1   13    5     8     2    1.6391E+02  2.2189E-01   1.6369E+02  0.000E+00  0.000E+00  0.000E+00  1.01854E+03  2.911E+00  4.221E+01  4.302E-01  1.719E-01
   1   13    4     8     3    1.6369E+02 -2.2713E+00   1.6596E+02  0.000E+00  0.000E+00  0.000E+00  1.01229E+03  2.918E+00  4.231E+01  4.312E+00 -1.756E-01
   1   13    3     8     4    1.6596E+02 -3.5682E+00   1.6953E+02  0.000E+00  0.000E+00  0.000E+00  1.00606E+03  2.937E+00  4.259E+01  4.340E+00 -2.740E-01
   1   13    2     8     5    1.6953E+02 -2.5501E+00   1.7208E+02  0.000E+00  0.000E+00  0.000E+00  9.99832E+02  2.957E+00  4.288E+01  4.370E+00 -1.945E-01
   1   13    1     8     6    1.7208E+02 -1.9613E+00   1.7404E+02  0.000E+00  0.000E+00  0.000E+00  9.94847E+02  2.972E+00  4.309E+01  2.635E+00 -2.481E-01
   1    8    6     9     1    7.1806E-01  0.0000E+00   7.1806E-01  0.000E+00  0.000E+00  0.000E+00  1.07922E+03  4.666E-01  4.000E+00  0.000E+00  1.156E+00
   1    8    5     9     2    7.1806E-01  0.0000E+00   7.1806E-01  0.000E+00  0.000E+00  0.000E+00  1.07872E+03  4.666E-01  4.000E+00  0.000E+00  1.156E+00





UNSATURATED ZONE PACKAGE VOLUMETRIC BUDGET FOR  TIME STEP    30 STRESS PERIOD   47
  ------------------------------------------------------------------------------



     CUMULATIVE VOLUMES      L**3       RATES FOR THIS TIME STEP      L**3/T
     ------------------                 ------------------------

           IN:                                      IN:
           ---                                      ---
        INFILTRATION =  2436471328.9105          INFILTRATION =           1.5656

          OUT:                                     OUT:
          ----                                     ----
              UZF ET =  1702333618.2285                UZF ET =           1.5675
        UZF RECHARGE =   220814588.8061          UZF RECHARGE =          17.4394

            IN - OUT =   513323121.8759              IN - OUT =         -17.4413

          STORAGE:                                 STORAGE:
          --------                                 --------
      STORAGE CHANGE =   514991399.0340        STORAGE CHANGE =         -17.4413

 PERCENT DISCREPANCY IS DIFFERENCE BETWEEN IN-OUT MINUS CHANGE IN STORAGE
 DIVIDED BY THE AVERAGE OF IN AND OUT TIMES 100

 PERCENT DISCREPANCY =          -0.02     PERCENT DISCREPANCY =           0.00






1
  VOLUMETRIC BUDGET FOR AGRICULTURAL FIELDS AT  END OF TIME STEP   30, STRESS PERIOD  47
  ------------------------------------------------------------------------------

     CUMULATIVE VOLUMES      L**3       RATES FOR THIS TIME STEP      L**3/T
     ------------------                 ------------------------

           IN:                                      IN:
           ---                                      ---
           AG WELLS      =  1123160832.0000             AG WELLS      =           0.0000
      DIVERSION SEGMENTS =  1210745088.0000        DIVERSION SEGMENTS =           0.7181
           GW IRRIGATION =           0.0000             GW IRRIGATION =           0.0000
           SW IRRIGATION =           0.0000             SW IRRIGATION =           0.0000
        SYSTEM LOSSES GW =           0.0000          SYSTEM LOSSES GW =           0.0000
        SYSTEM LOSSES SW =           0.0000          SYSTEM LOSSES SW =           0.0000

                TOTAL IN =  2333905920.0000                  TOTAL IN =           0.7181

          OUT:                                     OUT:
          ----                                     ----
           AG WELLS      =           0.0000             AG WELLS      =           0.0000
      DIVERSION SEGMENTS =           0.0000        DIVERSION SEGMENTS =           0.0000
           GW IRRIGATION =  1123160832.0000             GW IRRIGATION =           0.0000
           SW IRRIGATION =  1210767104.0000             SW IRRIGATION =           0.7181
        SYSTEM LOSSES GW =           0.0000          SYSTEM LOSSES GW =           0.0000
        SYSTEM LOSSES SW =           0.0000          SYSTEM LOSSES SW =           0.0000

               TOTAL OUT =  2333927936.0000                 TOTAL OUT =           0.7181

                IN - OUT =      -22016.0000                  IN - OUT =      -1.4365E-05

     PERCENT DISCREPANCY =          -0.00         PERCENT DISCREPANCY =          -0.00



1
  VOLUMETRIC BUDGET FOR ENTIRE MODEL AT END OF TIME STEP   30, STRESS PERIOD  47
  ------------------------------------------------------------------------------

     CUMULATIVE VOLUMES      L**3       RATES FOR THIS TIME STEP      L**3/T
     ------------------                 ------------------------

           IN:                                      IN:
           ---                                      ---
             STORAGE     =  1688900992.0000               STORAGE     =          15.8247
       CONSTANT HEAD     =           0.0000         CONSTANT HEAD     =           0.0000
     HEAD DEP BOUNDS     =    34638732.0000       HEAD DEP BOUNDS     =           0.2870
      STREAM LEAKAGE     =  1457341568.0000        STREAM LEAKAGE     =          11.5377
        UZF RECHARGE     =   220814608.0000          UZF RECHARGE     =          17.4394
               GW ET     =           0.0000                 GW ET     =           0.0000
     SURFACE LEAKAGE     =           0.0000       SURFACE LEAKAGE     =           0.0000
           AG WELLS      =           0.0000             AG WELLS      =           0.0000

                TOTAL IN =  3401696000.0000                  TOTAL IN =          45.0888

          OUT:                                     OUT:
          ----                                     ----
             STORAGE     =   951654080.0000               STORAGE     =          34.4474
       CONSTANT HEAD     =           0.0000         CONSTANT HEAD     =           0.0000
     HEAD DEP BOUNDS     =    35182504.0000       HEAD DEP BOUNDS     =           0.2885
      STREAM LEAKAGE     =  1288540672.0000        STREAM LEAKAGE     =          10.3509
        UZF RECHARGE     =           0.0000          UZF RECHARGE     =           0.0000
               GW ET     =     3143644.7500                 GW ET     =           0.0000
     SURFACE LEAKAGE     =           0.0000       SURFACE LEAKAGE     =           0.0000
           AG WELLS      =  1123160832.0000             AG WELLS      =           0.0000

               TOTAL OUT =  3401681664.0000                 TOTAL OUT =          45.0868

                IN - OUT =       14336.0000                  IN - OUT =       2.0447E-03

     PERCENT DISCREPANCY =           0.00         PERCENT DISCREPANCY =           0.00






         TIME SUMMARY AT END OF TIME STEP   30 IN STRESS PERIOD   47
                    SECONDS     MINUTES      HOURS       DAYS        YEARS
                    -----------------------------------------------------------
   TIME STEP LENGTH  87667.      1461.1      24.352      1.0147     2.77799E-03
 STRESS PERIOD TIME 2.63000E+06  43833.      730.56      30.440     8.33397E-02
         TOTAL TIME 1.21065E+08 2.01775E+06  33629.      1401.2      3.8363    
1
1
                            STRESS PERIOD NO.   48, LENGTH =   2630000.    
                            -----------------------------------------------

                              NUMBER OF TIME STEPS =    30

                               MULTIPLIER FOR DELT =     1.000

                            INITIAL TIME STEP SIZE =   87666.66    

 REUSING NON-PARAMETER GHB CELLS FROM LAST STRESS PERIOD

      2 GHB CELLS

 REUSING STREAM SEGMENT DATA FROM LAST STRESS PERIOD



            AREAL INFILTRATION RATE
 READING ON UNIT   19 WITH FORMAT: (FREE)              

            1           2           3           4           5           6           7           8           9          10
 ........................................................................................................................
   1   1.0000E-10  2.0000E-10   0.000       0.000       0.000       0.000       0.000       0.000       0.000       0.000    
   2   2.0000E-10  1.0000E-10  2.0000E-10   0.000       0.000      8.0000E-10  8.0000E-10  5.0000E-10   0.000       0.000    
   3    0.000      5.0000E-10  1.0000E-10  1.0000E-10  8.0000E-10  8.0000E-10  5.0000E-10  5.0000E-10   0.000       0.000    
   4   8.0000E-10  5.0000E-10  1.0000E-10  1.0000E-10  1.0000E-10  1.0000E-10  1.0000E-10  1.0000E-10  2.0000E-10   0.000    
   5   8.0000E-10  5.0000E-10  1.0000E-10  1.0000E-10  1.0000E-10  1.0000E-10  1.0000E-10  1.0000E-10  1.0000E-10  1.0000E-10
   6   8.0000E-10  5.0000E-10  5.0000E-10  2.0000E-10  2.0000E-10  1.0000E-10  1.0000E-10  1.0000E-10  1.0000E-10  5.0000E-10
   7   8.0000E-10  5.0000E-10  5.0000E-10  2.0000E-10  2.0000E-10  1.0000E-10  1.0000E-10  2.0000E-10  2.0000E-10   0.000    
   8    0.000      5.0000E-10  5.0000E-10  2.0000E-10  2.0000E-10  1.0000E-10  1.0000E-10  2.0000E-10  5.0000E-10   0.000    
   9    0.000      5.0000E-10  5.0000E-10  2.0000E-10  2.0000E-10  1.0000E-10  1.0000E-10  2.0000E-10  5.0000E-10   0.000    
  10    0.000      5.0000E-10  5.0000E-10  2.0000E-10  2.0000E-10  1.0000E-10  1.0000E-10  2.0000E-10  5.0000E-10  8.0000E-10
  11    0.000      1.0000E-10  1.0000E-10  1.0000E-10  1.0000E-10  1.0000E-10  1.0000E-10  2.0000E-10  5.0000E-10   0.000    
  12   1.0000E-10  1.0000E-10  1.0000E-10  1.0000E-10  1.0000E-10  1.0000E-10  1.0000E-10  1.0000E-10  2.0000E-10   0.000    
  13   1.0000E-10  1.0000E-10  2.0000E-10  2.0000E-10  2.0000E-10  2.0000E-10  2.0000E-10  1.0000E-10  1.0000E-10   0.000    
  14    0.000      2.0000E-10  5.0000E-10  5.0000E-10  5.0000E-10  5.0000E-10  5.0000E-10  2.0000E-10  1.0000E-10   0.000    
  15    0.000       0.000      8.0000E-10  8.0000E-10  8.0000E-10  8.0000E-10   0.000       0.000       0.000       0.000    

                  ET RATE =  5.000000E-10

 USING ET EXTINCTION DEPTH FROM PREVIOUS STRESS PERIOD. CURRENT PERIOD IS:      48

 USING EXTINCTION WATER CONTENT FROM PREVIOUS STRESS PERIOD. CURRENT PERIOD IS:      48

 USING AIR ENTRY PRESSURE FROM PREVIOUS STRESS PERIOD. CURRENT PERIOD IS:      48

 USING ROOT PRESSURE HEAD FROM PREVIOUS STRESS PERIOD. CURRENT PERIOD IS:      48

 USING ROOT ACTIVITY FROM PREVIOUS STRESS PERIOD. CURRENT PERIOD IS:      48

 PROCESSING AG STRESS PERIOD DATA

 READING AG STRESS PERIOD DATA

 READING IRRIGATION SEGMENT

 READING IRRIGATION WELL

 READING SUPPLEMENTAL WELL

 END PROCESSING AG STRESS PERIOD DATA OPTIONS
 
 SOLVING FOR HEAD 
                                                   Max.-Head-Change                         Max.-Flux-Residual
  Residual-Control   Outer-Iter.   Inner-Iter.     Column Row Layer    Maximum-Head-Change  Column Row Layer    Maximum-Flux-Residual          L2-NORM 
          0                 1           2             4    7     1       0.6783692514E-01       4    7    1         0.3573743289E+01      0.7709139583E+01
          0                 2           2             4    7     1       0.1929631012E-01       4    7    1         0.1017745146E+01      0.1972848701E+01
          0                 3           2             4    7     1       0.5488670732E-02       4    7    1         0.2893894113E+00      0.5554455035E+00
          0                 4           2             4    7     1       0.1561222957E-02       4    7    1         0.8232031841E-01      0.1598357665E+00
          0                 5           2             4    7     1       0.4441066068E-03       4    7    1         0.2341545669E-01      0.4609764850E-01
          0                 6           1             4    7     1       0.1263435069E-03       4    7    1         0.6660906935E-02      0.1331911151E-01
          0                 7           1             4    7     1       0.3594843249E-04       5    8    1         0.1915736895E-02      0.3854915520E-02

    ------------------------------------------------
       NWT REQUIRED            7 OUTER ITERATIONS 
       AND A TOTAL OF         12 INNER ITERATIONS.
    ------------------------------------------------

 NO OUTPUT CONTROL FOR STRESS PERIOD   48   TIME STEP    1
 
 SOLVING FOR HEAD 
                                                   Max.-Head-Change                         Max.-Flux-Residual
  Residual-Control   Outer-Iter.   Inner-Iter.     Column Row Layer    Maximum-Head-Change  Column Row Layer    Maximum-Flux-Residual          L2-NORM 
          0                 1           2             4    7     1       0.6638431647E-01       4    7    1         0.3496620314E+01      0.7571617679E+01
          0                 2           2             4    7     1       0.1888564200E-01       4    7    1         0.9960118578E+00      0.1929083029E+01
          0                 3           2             4    7     1       0.5372443162E-02       4    7    1         0.2832385204E+00      0.5424690448E+00
          0                 4           2             4    7     1       0.1528293909E-02       4    7    1         0.8057931107E-01      0.1560401914E+00
          0                 5           2             4    7     1       0.4347680710E-03       4    7    1         0.2292205751E-01      0.4498914116E-01
          0                 6           1             4    7     1       0.1236926500E-03       4    7    1         0.6520945968E-02      0.1299564682E-01
          0                 7           1             4    7     1       0.3519528499E-04       4    7    1         0.1855270773E-02      0.3760622371E-02

    ------------------------------------------------
       NWT REQUIRED            7 OUTER ITERATIONS 
       AND A TOTAL OF         12 INNER ITERATIONS.
    ------------------------------------------------

 NO OUTPUT CONTROL FOR STRESS PERIOD   48   TIME STEP    2
 
 SOLVING FOR HEAD 
                                                   Max.-Head-Change                         Max.-Flux-Residual
  Residual-Control   Outer-Iter.   Inner-Iter.     Column Row Layer    Maximum-Head-Change  Column Row Layer    Maximum-Flux-Residual          L2-NORM 
          0                 1           2             4    7     1       0.6497656445E-01       4    7    1         0.3421919097E+01      0.7453972081E+01
          0                 2           2             4    7     1       0.1848758433E-01       4    7    1         0.9749456639E+00      0.1892632147E+01
          0                 3           2             4    7     1       0.5259837610E-02       4    7    1         0.2772765270E+00      0.5318129339E+00
          0                 4           2             4    7     1       0.1496424545E-02       4    7    1         0.7889283807E-01      0.1529569751E+00
          0                 5           2             4    7     1       0.4257441874E-03       4    7    1         0.2244468551E-01      0.4409595463E-01
          0                 6           1             4    7     1       0.1211362587E-03       4    7    1         0.6385760549E-02      0.1273647726E-01
          0                 7           1             4    7     1       0.3447071167E-04       4    7    1         0.1816968892E-02      0.3685293807E-02

    ------------------------------------------------
       NWT REQUIRED            7 OUTER ITERATIONS 
       AND A TOTAL OF         12 INNER ITERATIONS.
    ------------------------------------------------

 NO OUTPUT CONTROL FOR STRESS PERIOD   48   TIME STEP    3
 
 SOLVING FOR HEAD 
                                                   Max.-Head-Change                         Max.-Flux-Residual
  Residual-Control   Outer-Iter.   Inner-Iter.     Column Row Layer    Maximum-Head-Change  Column Row Layer    Maximum-Flux-Residual          L2-NORM 
          0                 1           2             4    7     1       0.6361187172E-01       4    7    1         0.3349526328E+01      0.7339791209E+01
          0                 2           2             4    7     1       0.1810155889E-01       4    7    1         0.9545214645E+00      0.1857362464E+01
          0                 3           2             4    7     1       0.5150601031E-02       4    7    1         0.2714942208E+00      0.5215067184E+00
          0                 4           2             4    7     1       0.1465500372E-02       4    7    1         0.7725669082E-01      0.1499779772E+00
          0                 5           2             4    7     1       0.4169860074E-03       4    7    1         0.2198144076E-01      0.4323384715E-01
          0                 6           1             4    7     1       0.1186547046E-03       4    7    1         0.6254548494E-02      0.1248658137E-01
          0                 7           1             4    7     1       0.3376725723E-04       4    7    1         0.1779786694E-02      0.3612734672E-02

    ------------------------------------------------
       NWT REQUIRED            7 OUTER ITERATIONS 
       AND A TOTAL OF         12 INNER ITERATIONS.
    ------------------------------------------------

 NO OUTPUT CONTROL FOR STRESS PERIOD   48   TIME STEP    4
 
 SOLVING FOR HEAD 
                                                   Max.-Head-Change                         Max.-Flux-Residual
  Residual-Control   Outer-Iter.   Inner-Iter.     Column Row Layer    Maximum-Head-Change  Column Row Layer    Maximum-Flux-Residual          L2-NORM 
          0                 1           2             4    7     1       0.6228835106E-01       4    7    1         0.3279338255E+01      0.7228804015E+01
          0                 2           2             4    7     1       0.1772705407E-01       4    7    1         0.9347113801E+00      0.1823112895E+01
          0                 3           2             4    7     1       0.5044593117E-02       4    7    1         0.2658840198E+00      0.5115048488E+00
          0                 4           2             4    7     1       0.1435482412E-02       4    7    1         0.7566878332E-01      0.1470885611E+00
          0                 5           2             4    7     1       0.4084825611E-03       4    7    1         0.2153174170E-01      0.4239814333E-01
          0                 6           1             4    7     1       0.1162448603E-03       4    7    1         0.6127145529E-02      0.1224447564E-01
          0                 7           1             4    7     1       0.3308401814E-04       4    7    1         0.1743677192E-02      0.3542476617E-02

    ------------------------------------------------
       NWT REQUIRED            7 OUTER ITERATIONS 
       AND A TOTAL OF         12 INNER ITERATIONS.
    ------------------------------------------------

 NO OUTPUT CONTROL FOR STRESS PERIOD   48   TIME STEP    5
 
 SOLVING FOR HEAD 
                                                   Max.-Head-Change                         Max.-Flux-Residual
  Residual-Control   Outer-Iter.   Inner-Iter.     Column Row Layer    Maximum-Head-Change  Column Row Layer    Maximum-Flux-Residual          L2-NORM 
          0                 1           2             4    7     1       0.6111864952E-01       4    7    1         0.3211252248E+01      0.7287643130E+01
          0                 2           2             4    8     1       0.1814680996E-01       4    8    1         0.9655818308E+00      0.1907886037E+01
          0                 3           2             4    8     1       0.5926247652E-02       4    8    1         0.3153625966E+00      0.5591350403E+00
          0                 4           2             4    8     1       0.1930561349E-02       4    8    1         0.1029614033E+00      0.1686924689E+00
          0                 5           2             4    8     1       0.6275674517E-03       4    8    1         0.3352078073E-01      0.5132059539E-01
          0                 6           2             4    8     1       0.2036265434E-03       4    8    1         0.1089139105E-01      0.1573043398E-01
          0                 7           1             4    8     1       0.6596450441E-04       4    8    1         0.3532437326E-02      0.4854341431E-02

    ------------------------------------------------
       NWT REQUIRED            7 OUTER ITERATIONS 
       AND A TOTAL OF         13 INNER ITERATIONS.
    ------------------------------------------------

 NO OUTPUT CONTROL FOR STRESS PERIOD   48   TIME STEP    6
 
 SOLVING FOR HEAD 
                                                   Max.-Head-Change                         Max.-Flux-Residual
  Residual-Control   Outer-Iter.   Inner-Iter.     Column Row Layer    Maximum-Head-Change  Column Row Layer    Maximum-Flux-Residual          L2-NORM 
          0                 1           2             4    8     1       0.7222981395E-01       4    8    1         0.3835200781E+01      0.7672531068E+01
          0                 2           2             4    8     1       0.2348461238E-01       4    8    1         0.1255870604E+01      0.2112723559E+01
          0                 3           2             4    8     1       0.7622067538E-02       4    8    1         0.4074835471E+00      0.6445499111E+00
          0                 4           2             4    8     1       0.2470073062E-02       4    8    1         0.1322380048E+00      0.2013683839E+00
          0                 5           2             4    8     1       0.7994585294E-03       4    8    1         0.4283804659E-01      0.6326583353E-01
          0                 6           2             4    8     1       0.2584730969E-03       4    8    1         0.1386096045E-01      0.1996363672E-01
          0                 7           1             4    8     1       0.8349067336E-04       4    8    1         0.4480296000E-02      0.6320924984E-02

    ------------------------------------------------
       NWT REQUIRED            7 OUTER ITERATIONS 
       AND A TOTAL OF         13 INNER ITERATIONS.
    ------------------------------------------------

 NO OUTPUT CONTROL FOR STRESS PERIOD   48   TIME STEP    7
 
 SOLVING FOR HEAD 
                                                   Max.-Head-Change                         Max.-Flux-Residual
  Residual-Control   Outer-Iter.   Inner-Iter.     Column Row Layer    Maximum-Head-Change  Column Row Layer    Maximum-Flux-Residual          L2-NORM 
          0                 1           2             5    7     1       0.7183896184E-01       5    7    1         0.3838385151E+01      0.7996805624E+01
          0                 2           2             5    7     1       0.2312529757E-01       5    7    1         0.1246677700E+01      0.2209400294E+01
          0                 3           2             5    7     1       0.7424814787E-02       5    7    1         0.4002573256E+00      0.6679678175E+00
          0                 4           2             5    7     1       0.2378648909E-02       5    7    1         0.1284818782E+00      0.2060186645E+00
          0                 5           2             5    7     1       0.7606171148E-03       5    7    1         0.4113854525E-01      0.6377589317E-01
          0                 6           2             5    7     1       0.2428354210E-03       5    7    1         0.1314929367E-01      0.1980103907E-01
          0                 7           1             5    7     1       0.7742253501E-04       5    7    1         0.4196526590E-02      0.6162503675E-02

    ------------------------------------------------
       NWT REQUIRED            7 OUTER ITERATIONS 
       AND A TOTAL OF         13 INNER ITERATIONS.
    ------------------------------------------------

 NO OUTPUT CONTROL FOR STRESS PERIOD   48   TIME STEP    8
 
 SOLVING FOR HEAD 
                                                   Max.-Head-Change                         Max.-Flux-Residual
  Residual-Control   Outer-Iter.   Inner-Iter.     Column Row Layer    Maximum-Head-Change  Column Row Layer    Maximum-Flux-Residual          L2-NORM 
          0                 1           2             5    7     1       0.6518375997E-01       5    7    1         0.3470182077E+01      0.7573849183E+01
          0                 2           2             5    7     1       0.2001764707E-01       5    7    1         0.1075216404E+01      0.2024081722E+01
          0                 3           2             5    7     1       0.6138112871E-02       5    7    1         0.3292962551E+00      0.5970596598E+00
          0                 4           2             5    7     1       0.1879766192E-02       5    7    1         0.1009851397E+00      0.1799749433E+00
          0                 5           2             5    7     1       0.5750501098E-03       5    7    1         0.3091500370E-01      0.5440627117E-01
          0                 6           2             5    7     1       0.1757575780E-03       5    7    1         0.9455069313E-02      0.1648460059E-01
          0                 7           1             5    7     1       0.5367757206E-04       5    7    1         0.2889215342E-02      0.5004223835E-02

    ------------------------------------------------
       NWT REQUIRED            7 OUTER ITERATIONS 
       AND A TOTAL OF         13 INNER ITERATIONS.
    ------------------------------------------------

 NO OUTPUT CONTROL FOR STRESS PERIOD   48   TIME STEP    9
 
 SOLVING FOR HEAD 
                                                   Max.-Head-Change                         Max.-Flux-Residual
  Residual-Control   Outer-Iter.   Inner-Iter.     Column Row Layer    Maximum-Head-Change  Column Row Layer    Maximum-Flux-Residual          L2-NORM 
          0                 1           2             4    7     1       0.5912950641E-01       4    7    1         0.3100378066E+01      0.7404106905E+01
          0                 2           2             4    7     1       0.1695715202E-01       5    7    1         0.8975002959E+00      0.1997143685E+01
          0                 3           2             5    7     1       0.5240507062E-02       5    7    1         0.2782630359E+00      0.5987856837E+00
          0                 4           2             5    7     1       0.1627580651E-02       5    7    1         0.8650412986E-01      0.1837545654E+00
          0                 5           2             5    7     1       0.5052888709E-03       5    7    1         0.2686086240E-01      0.5658974978E-01
          0                 6           2             5    6     1       0.1590688793E-03       5    6    1         0.8571161087E-02      0.1747652486E-01
          0                 7           1             5    6     1       0.5102466211E-04       5    6    1         0.2753033023E-02      0.5409524199E-02

    ------------------------------------------------
       NWT REQUIRED            7 OUTER ITERATIONS 
       AND A TOTAL OF         13 INNER ITERATIONS.
    ------------------------------------------------

 NO OUTPUT CONTROL FOR STRESS PERIOD   48   TIME STEP   10
 
 SOLVING FOR HEAD 
                                                   Max.-Head-Change                         Max.-Flux-Residual
  Residual-Control   Outer-Iter.   Inner-Iter.     Column Row Layer    Maximum-Head-Change  Column Row Layer    Maximum-Flux-Residual          L2-NORM 
          0                 1           2             5    6     1       0.6070946337E-01       5    6    1         0.3240878014E+01      0.7637922536E+01
          0                 2           2             5    6     1       0.1949728389E-01       5    6    1         0.1053828185E+01      0.2091363355E+01
          0                 3           2             5    6     1       0.5979406690E-02       5    6    1         0.3222791801E+00      0.6240019031E+00
          0                 4           2             5    6     1       0.1820809438E-02       5    6    1         0.9821707741E-01      0.1896366725E+00
          0                 5           2             5    6     1       0.5543508748E-03       5    6    1         0.2990420566E-01      0.5775298347E-01
          0                 6           2             5    6     1       0.1687466231E-03       5    6    1         0.9104104289E-02      0.1761737781E-01
          0                 7           1             5    6     1       0.5136061151E-04       5    6    1         0.2771217564E-02      0.5381113818E-02

    ------------------------------------------------
       NWT REQUIRED            7 OUTER ITERATIONS 
       AND A TOTAL OF         13 INNER ITERATIONS.
    ------------------------------------------------

 NO OUTPUT CONTROL FOR STRESS PERIOD   48   TIME STEP   11
 
 SOLVING FOR HEAD 
                                                   Max.-Head-Change                         Max.-Flux-Residual
  Residual-Control   Outer-Iter.   Inner-Iter.     Column Row Layer    Maximum-Head-Change  Column Row Layer    Maximum-Flux-Residual          L2-NORM 
          0                 1           2             4    7     1       0.7905755668E-01       4    7    1         0.4191233612E+01      0.7829028248E+01
          0                 2           2             4    7     1       0.2586218720E-01       4    7    1         0.1375233670E+01      0.2216561506E+01
          0                 3           2             4    7     1       0.8443531717E-02       4    7    1         0.4494806088E+00      0.6902384736E+00
          0                 4           2             4    7     1       0.2751951547E-02       4    7    1         0.1466919145E+00      0.2188697947E+00
          0                 5           2             4    7     1       0.8956025107E-03       4    7    1         0.4779156208E-01      0.6954142819E-01
          0                 6           2             4    7     1       0.2910924597E-03       4    7    1         0.1554821791E-01      0.2212875580E-01
          0                 7           1             4    7     1       0.9450557459E-04       4    7    1         0.5052067448E-02      0.7049945995E-02

    ------------------------------------------------
       NWT REQUIRED            7 OUTER ITERATIONS 
       AND A TOTAL OF         13 INNER ITERATIONS.
    ------------------------------------------------

 NO OUTPUT CONTROL FOR STRESS PERIOD   48   TIME STEP   12
 
 SOLVING FOR HEAD 
                                                   Max.-Head-Change                         Max.-Flux-Residual
  Residual-Control   Outer-Iter.   Inner-Iter.     Column Row Layer    Maximum-Head-Change  Column Row Layer    Maximum-Flux-Residual          L2-NORM 
          0                 1           2             4    7     1       0.7265990630E-01       4    7    1         0.3843280101E+01      0.7595535925E+01
          0                 2           2             4    7     1       0.2265939723E-01       4    7    1         0.1201028251E+01      0.2091783153E+01
          0                 3           2             4    7     1       0.7061881882E-02       4    7    1         0.3743133823E+00      0.6360454495E+00
          0                 4           2             4    7     1       0.2199685675E-02       4    7    1         0.1166490890E+00      0.1971039921E+00
          0                 5           2             4    7     1       0.6848748567E-03       4    7    1         0.3632980230E-01      0.6115018409E-01
          0                 6           2             4    7     1       0.2131611232E-03       4    7    1         0.1131020925E-01      0.1898566252E-01
          0                 7           1             4    7     1       0.6632559235E-04       4    7    1         0.3519913255E-02      0.5897680536E-02

    ------------------------------------------------
       NWT REQUIRED            7 OUTER ITERATIONS 
       AND A TOTAL OF         13 INNER ITERATIONS.
    ------------------------------------------------

 NO OUTPUT CONTROL FOR STRESS PERIOD   48   TIME STEP   13
 
 SOLVING FOR HEAD 
                                                   Max.-Head-Change                         Max.-Flux-Residual
  Residual-Control   Outer-Iter.   Inner-Iter.     Column Row Layer    Maximum-Head-Change  Column Row Layer    Maximum-Flux-Residual          L2-NORM 
          0                 1           2             4    7     1       0.6741614324E-01       4    7    1         0.3558657732E+01      0.7394707602E+01
          0                 2           2             4    7     1       0.2107342373E-01       4    7    1         0.1115078853E+01      0.2020270609E+01
          0                 3           2             4    7     1       0.6569360124E-02       4    7    1         0.3478219492E+00      0.6129645087E+00
          0                 4           2             4    7     1       0.2048933197E-02       4    7    1         0.1085511510E+00      0.1898399188E+00
          0                 5           2             4    7     1       0.6386790676E-03       4    7    1         0.3385029251E-01      0.5886879980E-01
          0                 6           2             4    7     1       0.1989898662E-03       4    7    1         0.1055019541E-01      0.1827010489E-01
          0                 7           1             4    7     1       0.6197394595E-04       4    7    1         0.3286706422E-02      0.5673435430E-02

    ------------------------------------------------
       NWT REQUIRED            7 OUTER ITERATIONS 
       AND A TOTAL OF         13 INNER ITERATIONS.
    ------------------------------------------------

 NO OUTPUT CONTROL FOR STRESS PERIOD   48   TIME STEP   14
 
 SOLVING FOR HEAD 
                                                   Max.-Head-Change                         Max.-Flux-Residual
  Residual-Control   Outer-Iter.   Inner-Iter.     Column Row Layer    Maximum-Head-Change  Column Row Layer    Maximum-Flux-Residual          L2-NORM 
          0                 1           2             4    7     1       0.6562978402E-01       4    7    1         0.3464117956E+01      0.7285540721E+01
          0                 2           2             4    7     1       0.2050927089E-01       4    7    1         0.1085555470E+01      0.1980592757E+01
          0                 3           2             4    7     1       0.6403397446E-02       4    7    1         0.3389494084E+00      0.6003540980E+00
          0                 4           2             4    7     1       0.1997779855E-02       4    7    1         0.1058174969E+00      0.1858770869E+00
          0                 5           2             4    7     1       0.6228962255E-03       4    7    1         0.3300754392E-01      0.5762540518E-01
          0                 6           2             4    7     1       0.1941155349E-03       4    7    1         0.1029010742E-01      0.1788024289E-01
          0                 7           1             4    7     1       0.6046721137E-04       4    7    1         0.3206362979E-02      0.5551246413E-02

    ------------------------------------------------
       NWT REQUIRED            7 OUTER ITERATIONS 
       AND A TOTAL OF         13 INNER ITERATIONS.
    ------------------------------------------------

 NO OUTPUT CONTROL FOR STRESS PERIOD   48   TIME STEP   15
 
 SOLVING FOR HEAD 
                                                   Max.-Head-Change                         Max.-Flux-Residual
  Residual-Control   Outer-Iter.   Inner-Iter.     Column Row Layer    Maximum-Head-Change  Column Row Layer    Maximum-Flux-Residual          L2-NORM 
          0                 1           2             4    7     1       0.6392338426E-01       4    7    1         0.3372581320E+01      0.7178902760E+01
          0                 2           2             4    7     1       0.1998462095E-01       4    7    1         0.1057477809E+01      0.1942752482E+01
          0                 3           2             4    7     1       0.6241995742E-02       4    7    1         0.3303104075E+00      0.5883109339E+00
          0                 4           2             4    7     1       0.1948092914E-02       4    7    1         0.1031597386E+00      0.1821186155E+00
          0                 5           2             4    7     1       0.6075906395E-03       4    7    1         0.3218921195E-01      0.5645435762E-01
          0                 6           2             4    7     1       0.1893980385E-03       4    7    1         0.1003799051E-01      0.1751566377E-01
          0                 7           1             4    7     1       0.5901239159E-04       4    7    1         0.3128644419E-02      0.5437799442E-02

    ------------------------------------------------
       NWT REQUIRED            7 OUTER ITERATIONS 
       AND A TOTAL OF         13 INNER ITERATIONS.
    ------------------------------------------------

 NO OUTPUT CONTROL FOR STRESS PERIOD   48   TIME STEP   16
 
 SOLVING FOR HEAD 
                                                   Max.-Head-Change                         Max.-Flux-Residual
  Residual-Control   Outer-Iter.   Inner-Iter.     Column Row Layer    Maximum-Head-Change  Column Row Layer    Maximum-Flux-Residual          L2-NORM 
          0                 1           2             4    7     1       0.6236313158E-01       4    7    1         0.3285510589E+01      0.7159104926E+01
          0                 2           2             4    7     1       0.1954670776E-01       4    7    1         0.1032142524E+01      0.1960210800E+01
          0                 3           2             4    7     1       0.6126175297E-02       4    7    1         0.3232896698E+00      0.6004441416E+00
          0                 4           2             4    7     1       0.1919885454E-02       4    7    1         0.1013346902E+00      0.1877306501E+00
          0                 5           2             4    7     1       0.6016328402E-03       4    7    1         0.3175626597E-01      0.5871387794E-01
          0                 6           2             4    7     1       0.1885204967E-03       4    7    1         0.9951292750E-02      0.1836499948E-01
          0                 7           1             4    7     1       0.5906865282E-04       4    7    1         0.3118167222E-02      0.5744356088E-02

    ------------------------------------------------
       NWT REQUIRED            7 OUTER ITERATIONS 
       AND A TOTAL OF         13 INNER ITERATIONS.
    ------------------------------------------------

 NO OUTPUT CONTROL FOR STRESS PERIOD   48   TIME STEP   17
 
 SOLVING FOR HEAD 
                                                   Max.-Head-Change                         Max.-Flux-Residual
  Residual-Control   Outer-Iter.   Inner-Iter.     Column Row Layer    Maximum-Head-Change  Column Row Layer    Maximum-Flux-Residual          L2-NORM 
          0                 1           2             4    7     1       0.6107813447E-01       4    7    1         0.3209582726E+01      0.7267739217E+01
          0                 2           2             4    7     1       0.1920251081E-01       4    7    1         0.1011699197E+01      0.1998820601E+01
          0                 3           2             4    7     1       0.6035130632E-02       4    7    1         0.3178245241E+00      0.6125399518E+00
          0                 4           2             4    7     1       0.1896191698E-02       4    7    1         0.9989466599E-01      0.1914697456E+00
          0                 5           2             4    7     1       0.5955994772E-03       4    7    1         0.3138330134E-01      0.5986931990E-01
          0                 6           2             4    7     1       0.1870302342E-03       4    7    1         0.9856948184E-02      0.1872234420E-01
          0                 7           1             4    7     1       0.5871688414E-04       4    7    1         0.3095085881E-02      0.5854953777E-02

    ------------------------------------------------
       NWT REQUIRED            7 OUTER ITERATIONS 
       AND A TOTAL OF         13 INNER ITERATIONS.
    ------------------------------------------------

 NO OUTPUT CONTROL FOR STRESS PERIOD   48   TIME STEP   18
 
 SOLVING FOR HEAD 
                                                   Max.-Head-Change                         Max.-Flux-Residual
  Residual-Control   Outer-Iter.   Inner-Iter.     Column Row Layer    Maximum-Head-Change  Column Row Layer    Maximum-Flux-Residual          L2-NORM 
          0                 1           2             4    7     1       0.5989926835E-01       4    7    1         0.3147677211E+01      0.7164020172E+01
          0                 2           2             4    7     1       0.1882984518E-01       4    7    1         0.9921683085E+00      0.1960932146E+01
          0                 3           2             4    7     1       0.5917447268E-02       4    7    1         0.3116468779E+00      0.6004509922E+00
          0                 4           2             4    7     1       0.1859063763E-02       4    7    1         0.9794466241E-01      0.1876899043E+00
          0                 5           2             4    7     1       0.5838958577E-03       4    7    1         0.3076821607E-01      0.5868816039E-01
          0                 6           2             4    7     1       0.1833437534E-03       4    7    1         0.9663097308E-02      0.1835322376E-01
          0                 7           1             4    7     1       0.5755647745E-04       4    7    1         0.3034036265E-02      0.5739588905E-02

    ------------------------------------------------
       NWT REQUIRED            7 OUTER ITERATIONS 
       AND A TOTAL OF         13 INNER ITERATIONS.
    ------------------------------------------------

 NO OUTPUT CONTROL FOR STRESS PERIOD   48   TIME STEP   19
 
 SOLVING FOR HEAD 
                                                   Max.-Head-Change                         Max.-Flux-Residual
  Residual-Control   Outer-Iter.   Inner-Iter.     Column Row Layer    Maximum-Head-Change  Column Row Layer    Maximum-Flux-Residual          L2-NORM 
          0                 1           2             4    7     1       0.5874081444E-01       4    7    1         0.3086783259E+01      0.7063704154E+01
          0                 2           2             4    7     1       0.1846410036E-01       4    7    1         0.9729816371E+00      0.1924265201E+01
          0                 3           2             4    7     1       0.5802081411E-02       4    7    1         0.3055857962E+00      0.5887485170E+00
          0                 4           2             4    7     1       0.1822704248E-02       4    7    1         0.9603357032E-01      0.1840300640E+00
          0                 5           2             4    7     1       0.5724449979E-03       4    7    1         0.3016600557E-01      0.5754431070E-01
          0                 6           2             4    7     1       0.1797398702E-03       4    7    1         0.9473473895E-02      0.1799571313E-01
          0                 7           1             4    7     1       0.5642291468E-04       4    7    1         0.2974366084E-02      0.5627845870E-02

    ------------------------------------------------
       NWT REQUIRED            7 OUTER ITERATIONS 
       AND A TOTAL OF         13 INNER ITERATIONS.
    ------------------------------------------------

 NO OUTPUT CONTROL FOR STRESS PERIOD   48   TIME STEP   20
 
 SOLVING FOR HEAD 
                                                   Max.-Head-Change                         Max.-Flux-Residual
  Residual-Control   Outer-Iter.   Inner-Iter.     Column Row Layer    Maximum-Head-Change  Column Row Layer    Maximum-Flux-Residual          L2-NORM 
          0                 1           2             4    7     1       0.5760395828E-01       4    7    1         0.3026973593E+01      0.6966586343E+01
          0                 2           2             4    7     1       0.1810557213E-01       4    7    1         0.9541577759E+00      0.1888740353E+01
          0                 3           2             4    7     1       0.5689104185E-02       4    7    1         0.2996458732E+00      0.5774134068E+00
          0                 4           2             4    7     1       0.1787129305E-02       4    7    1         0.9416248198E-01      0.1804846209E+00
          0                 5           2             4    7     1       0.5612502123E-03       4    7    1         0.2957691304E-01      0.5643606261E-01
          0                 6           2             4    7     1       0.1762191256E-03       4    7    1         0.9288125947E-02      0.1764927945E-01
          0                 7           1             4    7     1       0.5531622408E-04       4    7    1         0.2916082346E-02      0.5519536665E-02

    ------------------------------------------------
       NWT REQUIRED            7 OUTER ITERATIONS 
       AND A TOTAL OF         13 INNER ITERATIONS.
    ------------------------------------------------

 NO OUTPUT CONTROL FOR STRESS PERIOD   48   TIME STEP   21
 
 SOLVING FOR HEAD 
                                                   Max.-Head-Change                         Max.-Flux-Residual
  Residual-Control   Outer-Iter.   Inner-Iter.     Column Row Layer    Maximum-Head-Change  Column Row Layer    Maximum-Flux-Residual          L2-NORM 
          0                 1           2             4    7     1       0.5648972637E-01       4    7    1         0.2968310911E+01      0.6872552992E+01
          0                 2           2             4    7     1       0.1775420208E-01       4    7    1         0.9357128509E+00      0.1854025655E+01
          0                 3           2             4    7     1       0.5578305952E-02       4    7    1         0.2938242197E+00      0.5662294096E+00
          0                 4           2             4    7     1       0.1752197680E-02       4    7    1         0.9232711182E-01      0.1769588341E+00
          0                 5           2             4    7     1       0.5502391305E-03       4    7    1         0.2899828486E-01      0.5532541613E-01
          0                 6           2             4    7     1       0.1727487762E-03       4    7    1         0.9105739701E-02      0.1729948355E-01
          0                 7           1             4    7     1       0.5422263443E-04       4    7    1         0.2858601990E-02      0.5409380639E-02

    ------------------------------------------------
       NWT REQUIRED            7 OUTER ITERATIONS 
       AND A TOTAL OF         13 INNER ITERATIONS.
    ------------------------------------------------

 NO OUTPUT CONTROL FOR STRESS PERIOD   48   TIME STEP   22
 
 SOLVING FOR HEAD 
                                                   Max.-Head-Change                         Max.-Flux-Residual
  Residual-Control   Outer-Iter.   Inner-Iter.     Column Row Layer    Maximum-Head-Change  Column Row Layer    Maximum-Flux-Residual          L2-NORM 
          0                 1           2             4    7     1       0.5539757573E-01       4    7    1         0.2910805206E+01      0.6780912411E+01
          0                 2           2             4    7     1       0.1741032861E-01       4    7    1         0.9176340110E+00      0.1820655366E+01
          0                 3           2             4    7     1       0.5470120899E-02       4    7    1         0.2881295114E+00      0.5555660289E+00
          0                 4           2             4    7     1       0.1718181453E-02       4    7    1         0.9053606624E-01      0.1736231162E+00
          0                 5           2             4    7     1       0.5395490609E-03       4    7    1         0.2843519724E-01      0.5428270785E-01
          0                 6           2             4    7     1       0.1693908345E-03       4    7    1         0.8928803562E-02      0.1697354067E-01
          0                 7           1             4    7     1       0.5316828532E-04       4    7    1         0.2803029237E-02      0.5307486799E-02

    ------------------------------------------------
       NWT REQUIRED            7 OUTER ITERATIONS 
       AND A TOTAL OF         13 INNER ITERATIONS.
    ------------------------------------------------

 NO OUTPUT CONTROL FOR STRESS PERIOD   48   TIME STEP   23
 
 SOLVING FOR HEAD 
                                                   Max.-Head-Change                         Max.-Flux-Residual
  Residual-Control   Outer-Iter.   Inner-Iter.     Column Row Layer    Maximum-Head-Change  Column Row Layer    Maximum-Flux-Residual          L2-NORM 
          0                 1           2             4    7     1       0.5432884096E-01       4    7    1         0.2854489871E+01      0.6691921726E+01
          0                 2           2             4    7     1       0.1707400785E-01       4    7    1         0.8999470405E+00      0.1788115576E+01
          0                 3           2             4    7     1       0.5364347223E-02       4    7    1         0.2825603904E+00      0.5451728232E+00
          0                 4           2             4    7     1       0.1684933305E-02       4    7    1         0.8878507769E-01      0.1703716219E+00
          0                 5           2             4    7     1       0.5291031402E-03       4    7    1         0.2788486237E-01      0.5326627275E-01
          0                 6           2             4    7     1       0.1661103609E-03       4    7    1         0.8755919201E-02      0.1665579395E-01
          0                 7           1             4    7     1       0.5213847874E-04       4    7    1         0.2748741588E-02      0.5208150636E-02

    ------------------------------------------------
       NWT REQUIRED            7 OUTER ITERATIONS 
       AND A TOTAL OF         13 INNER ITERATIONS.
    ------------------------------------------------

 NO OUTPUT CONTROL FOR STRESS PERIOD   48   TIME STEP   24
 
 SOLVING FOR HEAD 
                                                   Max.-Head-Change                         Max.-Flux-Residual
  Residual-Control   Outer-Iter.   Inner-Iter.     Column Row Layer    Maximum-Head-Change  Column Row Layer    Maximum-Flux-Residual          L2-NORM 
          0                 1           2             4    7     1       0.5328384979E-01       4    7    1         0.2799396879E+01      0.6605577045E+01
          0                 2           2             4    7     1       0.1674539006E-01       4    7    1         0.8826558912E+00      0.1756568463E+01
          0                 3           2             4    7     1       0.5261061544E-02       4    7    1         0.2771197411E+00      0.5350954127E+00
          0                 4           2             4    7     1       0.1652485737E-02       4    7    1         0.8707552936E-01      0.1672185055E+00
          0                 5           2             4    7     1       0.5189139947E-03       4    7    1         0.2734785113E-01      0.5228049565E-01
          0                 6           2             4    7     1       0.1629120148E-03       4    7    1         0.8587305026E-02      0.1634760370E-01
          0                 7           1             4    7     1       0.5113487554E-04       4    7    1         0.2695818820E-02      0.5111794300E-02

    ------------------------------------------------
       NWT REQUIRED            7 OUTER ITERATIONS 
       AND A TOTAL OF         13 INNER ITERATIONS.
    ------------------------------------------------

 NO OUTPUT CONTROL FOR STRESS PERIOD   48   TIME STEP   25
 
 SOLVING FOR HEAD 
                                                   Max.-Head-Change                         Max.-Flux-Residual
  Residual-Control   Outer-Iter.   Inner-Iter.     Column Row Layer    Maximum-Head-Change  Column Row Layer    Maximum-Flux-Residual          L2-NORM 
          0                 1           2             4    7     1       0.5226264229E-01       4    7    1         0.2745532958E+01      0.6521752891E+01
          0                 2           2             4    7     1       0.1642445338E-01       4    7    1         0.8657607641E+00      0.1725973981E+01
          0                 3           2             4    7     1       0.5160247257E-02       4    7    1         0.2718070671E+00      0.5253214042E+00
          0                 4           2             4    7     1       0.1620830777E-02       4    7    1         0.8540710851E-01      0.1641599554E+00
          0                 5           2             4    7     1       0.5089783410E-03       4    7    1         0.2682402082E-01      0.5132420101E-01
          0                 6           2             4    7     1       0.1597945433E-03       4    7    1         0.8422903656E-02      0.1604860696E-01
          0                 7           1             4    7     1       0.5015702064E-04       4    7    1         0.2644239393E-02      0.5018305673E-02

    ------------------------------------------------
       NWT REQUIRED            7 OUTER ITERATIONS 
       AND A TOTAL OF         13 INNER ITERATIONS.
    ------------------------------------------------

 NO OUTPUT CONTROL FOR STRESS PERIOD   48   TIME STEP   26
 
 SOLVING FOR HEAD 
                                                   Max.-Head-Change                         Max.-Flux-Residual
  Residual-Control   Outer-Iter.   Inner-Iter.     Column Row Layer    Maximum-Head-Change  Column Row Layer    Maximum-Flux-Residual          L2-NORM 
          0                 1           2             4    7     1       0.5126566431E-01       4    7    1         0.2692927004E+01      0.6440320819E+01
          0                 2           2             4    7     1       0.1611129652E-01       4    7    1         0.8492684970E+00      0.1696291108E+01
          0                 3           2             4    7     1       0.5061923550E-02       4    7    1         0.2666238388E+00      0.5158381098E+00
          0                 4           2             4    7     1       0.1589971075E-02       4    7    1         0.8378008661E-01      0.1611920666E+00
          0                 5           2             4    7     1       0.4992960465E-03       4    7    1         0.2631340214E-01      0.5039618384E-01
          0                 6           2             4    7     1       0.1567576298E-03       4    7    1         0.8262709127E-02      0.1575843145E-01
          0                 7           1             4    7     1       0.4920473535E-04       4    7    1         0.2593996959E-02      0.4927569586E-02

    ------------------------------------------------
       NWT REQUIRED            7 OUTER ITERATIONS 
       AND A TOTAL OF         13 INNER ITERATIONS.
    ------------------------------------------------

 NO OUTPUT CONTROL FOR STRESS PERIOD   48   TIME STEP   27
 
 SOLVING FOR HEAD 
                                                   Max.-Head-Change                         Max.-Flux-Residual
  Residual-Control   Outer-Iter.   Inner-Iter.     Column Row Layer    Maximum-Head-Change  Column Row Layer    Maximum-Flux-Residual          L2-NORM 
          0                 1           2             4    7     1       0.5029254014E-01       4    7    1         0.2641562315E+01      0.6361172554E+01
          0                 2           2             4    7     1       0.1580577822E-01       4    7    1         0.8331725626E+00      0.1667481464E+01
          0                 3           2             4    7     1       0.4966039496E-02       4    7    1         0.2615676271E+00      0.5066334488E+00
          0                 4           2             4    7     1       0.1559888789E-02       4    7    1         0.8219359544E-01      0.1583111020E+00
          0                 5           2             4    7     1       0.4898609877E-03       4    7    1         0.2581569262E-01      0.4949528643E-01
          0                 6           2             4    7     1       0.1537992048E-03       4    7    1         0.8106618063E-02      0.1547671828E-01
          0                 7           1             4    7     1       0.4827732798E-04       4    7    1         0.2545056663E-02      0.4839474604E-02

    ------------------------------------------------
       NWT REQUIRED            7 OUTER ITERATIONS 
       AND A TOTAL OF         13 INNER ITERATIONS.
    ------------------------------------------------

 NO OUTPUT CONTROL FOR STRESS PERIOD   48   TIME STEP   28
 
 SOLVING FOR HEAD 
                                                   Max.-Head-Change                         Max.-Flux-Residual
  Residual-Control   Outer-Iter.   Inner-Iter.     Column Row Layer    Maximum-Head-Change  Column Row Layer    Maximum-Flux-Residual          L2-NORM 
          0                 1           2             4    7     1       0.4934335807E-01       4    7    1         0.2591447248E+01      0.6284204270E+01
          0                 2           2             4    7     1       0.1550789835E-01       4    7    1         0.8174740512E+00      0.1639513570E+01
          0                 3           2             4    7     1       0.4872587150E-02       4    7    1         0.2566383209E+00      0.4976977507E+00
          0                 4           2             4    7     1       0.1530579175E-02       4    7    1         0.8064747264E-01      0.1555140811E+00
          0                 5           2             4    7     1       0.4806710351E-03       4    7    1         0.2533080496E-01      0.4862058734E-01
          0                 6           2             4    7     1       0.1509184178E-03       4    7    1         0.7954592770E-02      0.1520318225E-01
          0                 7           1             4    7     1       0.4737448089E-04       4    7    1         0.2497403787E-02      0.4753932496E-02

    ------------------------------------------------
       NWT REQUIRED            7 OUTER ITERATIONS 
       AND A TOTAL OF         13 INNER ITERATIONS.
    ------------------------------------------------

 NO OUTPUT CONTROL FOR STRESS PERIOD   48   TIME STEP   29
 
 SOLVING FOR HEAD 
                                                   Max.-Head-Change                         Max.-Flux-Residual
  Residual-Control   Outer-Iter.   Inner-Iter.     Column Row Layer    Maximum-Head-Change  Column Row Layer    Maximum-Flux-Residual          L2-NORM 
          0                 1           2             4    7     1       0.4841797127E-01       4    7    1         0.2542577022E+01      0.6209323128E+01
          0                 2           2             4    7     1       0.1521758795E-01       4    7    1         0.8021702372E+00      0.1612353007E+01
          0                 3           2             4    7     1       0.4781538327E-02       4    7    1         0.2518346881E+00      0.4890201307E+00
          0                 4           2             4    7     1       0.1502031524E-02       4    7    1         0.7914122643E-01      0.1527976363E+00
          0                 5           2             4    7     1       0.4717222957E-03       4    7    1         0.2485855470E-01      0.4777104298E-01
          0                 6           2             4    7     1       0.1481138952E-03       4    7    1         0.7806566746E-02      0.1493749987E-01
          0                 7           1             4    7     1       0.4649572024E-04       4    7    1         0.2451015011E-02      0.4670843018E-02

    ------------------------------------------------
       NWT REQUIRED            7 OUTER ITERATIONS 
       AND A TOTAL OF         13 INNER ITERATIONS.
    ------------------------------------------------

 NO OUTPUT CONTROL FOR STRESS PERIOD   48   TIME STEP   30



 STREAM LISTING     PERIOD     48   STEP       30

 LAYER ROW COL. STREAM  RCH.  FLOW INTO     FLOW TO   FLOW OUT OF   OVRLND.     DIRECT     STREAM       STREAM     STREAM     STREAM   STREAMBED  STREAMBED
                SEG.NO.  NO.  STRM. RCH.    AQUIFER    STRM. RCH.    RUNOFF     PRECIP       ET          HEAD       DEPTH      WIDTH   CONDCTNC.   GRADIENT

   1    1    1     1     1    1.5750E+01  1.9239E-01   1.5557E+01  0.000E+00  0.000E+00  0.000E+00  1.09407E+03  1.025E+00  1.062E+01  4.780E-02  1.342E+00
   1    2    2     1     2    1.5557E+01  2.9659E-01   1.5261E+01  0.000E+00  0.000E+00  0.000E+00  1.08908E+03  1.020E+00  1.054E+01  7.378E-02  1.340E+00
   1    3    3     1     3    1.5261E+01  2.5163E-01   1.5009E+01  0.000E+00  0.000E+00  0.000E+00  1.08343E+03  1.015E+00  1.045E+01  6.268E-02  1.338E+00
   1    3    4     1     4    1.5009E+01  2.3063E-01   1.4778E+01  0.000E+00  0.000E+00  0.000E+00  1.07842E+03  1.010E+00  1.036E+01  5.751E-02  1.337E+00
   1    4    5     2     1    1.2778E+01  2.9653E-01   1.2482E+01  0.000E+00  0.000E+00  0.000E+00  1.07274E+03  8.017E-01  1.200E+01  7.800E-02  1.267E+00
   1    5    6     2     2    1.2482E+01  2.2750E-01   1.2254E+01  0.000E+00  0.000E+00  0.000E+00  1.06730E+03  7.916E-01  1.200E+01  6.000E-02  1.264E+00
   1    6    6     2     3    1.2254E+01  2.2697E-01   1.2027E+01  0.000E+00  0.000E+00  0.000E+00  1.06258E+03  7.829E-01  1.200E+01  6.000E-02  1.261E+00
   1    7    6     2     4    1.2027E+01  2.2644E-01   1.1801E+01  0.000E+00  0.000E+00  0.000E+00  1.05785E+03  7.741E-01  1.200E+01  6.000E-02  1.258E+00
   1    8    6     2     5    1.1801E+01  2.2591E-01   1.1575E+01  0.000E+00  0.000E+00  0.000E+00  1.05312E+03  7.652E-01  1.200E+01  6.000E-02  1.255E+00
   1    3    5     3     1    2.0000E+00  2.8252E-01   1.7175E+00  0.000E+00  0.000E+00  0.000E+00  1.07555E+03  1.909E+00  9.636E+00  7.227E-02  1.955E+00
   1    3    6     3     2    1.7175E+00  2.4905E-01   1.4684E+00  0.000E+00  0.000E+00  0.000E+00  1.07264E+03  1.727E+00  8.909E+00  6.682E-02  1.864E+00
   1    3    7     3     3    1.4684E+00  1.9718E-01   1.2712E+00  0.000E+00  0.000E+00  0.000E+00  1.06987E+03  1.555E+00  8.218E+00  5.547E-02  1.777E+00
   1    4    8     3     4    1.2712E+00  2.2567E-01   1.0456E+00  0.000E+00  0.000E+00  0.000E+00  1.06682E+03  1.364E+00  7.455E+00  6.709E-02  1.682E+00
   1    5    8     3     5    1.0456E+00  1.5790E-01   8.8768E-01  0.000E+00  0.000E+00  0.000E+00  1.06362E+03  1.164E+00  6.655E+00  4.991E-02  1.582E+00
   1    6    8     3     6    8.8768E-01  5.5980E-02   8.3170E-01  0.000E+00  0.000E+00  0.000E+00  1.06158E+03  1.036E+00  6.145E+00  1.844E-02  1.518E+00
   1    5   10     4     1    1.0000E+01  9.0919E-02   9.9091E+00  0.000E+00  0.000E+00  0.000E+00  1.07836E+03  6.368E-01  1.000E+01  2.500E-02  1.212E+00
   1    5    9     4     2    9.9091E+00  1.8158E-01   9.7275E+00  0.000E+00  0.000E+00  0.000E+00  1.07154E+03  6.315E-01  1.000E+01  5.000E-02  1.211E+00
   1    6    8     4     3    9.7275E+00  1.2689E-01   9.6006E+00  0.000E+00  0.000E+00  0.000E+00  1.06381E+03  6.256E-01  1.000E+01  3.500E-02  1.209E+00
   1    6    8     5     1    1.0432E+01  2.2686E-01   1.0205E+01  0.000E+00  0.000E+00  0.000E+00  1.05868E+03  6.790E-01  1.542E+01  6.166E-02  1.226E+00
   1    7    7     5     2    1.0205E+01  2.7894E-01   9.9265E+00  0.000E+00  0.000E+00  0.000E+00  1.05417E+03  6.732E-01  1.519E+01  7.594E-02  1.224E+00
   1    8    7     5     3    9.9265E+00  1.9221E-01   9.7343E+00  0.000E+00  0.000E+00  0.000E+00  1.04992E+03  6.676E-01  1.497E+01  5.241E-02  1.223E+00
   1    8    6     5     4    9.7343E+00  1.3577E-01   9.5985E+00  0.000E+00  0.000E+00  0.000E+00  1.04691E+03  6.637E-01  1.482E+01  3.706E-02  1.221E+00
   1    9    6     6     1    2.1173E+01  2.4608E-01   2.0927E+01  0.000E+00  0.000E+00  0.000E+00  1.04383E+03  1.101E+00  1.200E+01  6.000E-02  1.367E+00
   1   10    7     6     2    2.0927E+01  2.4562E-01   2.0682E+01  0.000E+00  0.000E+00  0.000E+00  1.03928E+03  1.094E+00  1.200E+01  6.000E-02  1.365E+00
   1   11    7     6     3    2.0682E+01  2.4515E-01   2.0437E+01  0.000E+00  0.000E+00  0.000E+00  1.03472E+03  1.086E+00  1.200E+01  6.000E-02  1.362E+00
   1   12    7     6     4    2.0437E+01  2.4468E-01   2.0192E+01  0.000E+00  0.000E+00  0.000E+00  1.03017E+03  1.078E+00  1.200E+01  6.000E-02  1.359E+00
   1   13    7     6     5    2.0192E+01  1.7127E-03   2.0190E+01  0.000E+00  0.000E+00  0.000E+00  1.02698E+03  1.074E+00  1.200E+01  2.400E-02  2.379E-02
   1   14    9     7     1    1.5000E+02  1.3548E+00   1.4865E+02  0.000E+00  0.000E+00  0.000E+00  1.03987E+03  2.288E+00  5.529E+01  5.593E-01  8.074E-01
   1   13    8     7     2    1.4865E+02  1.8876E+00   1.4676E+02  0.000E+00  0.000E+00  0.000E+00  1.03478E+03  2.279E+00  5.526E+01  6.148E-01  1.023E+00
   1   13    7     7     3    1.4676E+02  1.5509E+00   1.4521E+02  0.000E+00  0.000E+00  0.000E+00  1.02969E+03  2.270E+00  5.521E+01  5.584E-01  9.258E-01
   1   13    6     8     1    1.6540E+02  9.7992E-01   1.6442E+02  0.000E+00  0.000E+00  0.000E+00  1.02479E+03  2.919E+00  4.232E+01  4.313E-01  7.574E-01
   1   13    5     8     2    1.6442E+02  2.3763E-01   1.6418E+02  0.000E+00  0.000E+00  0.000E+00  1.01854E+03  2.915E+00  4.226E+01  4.307E-01  1.839E-01
   1   13    4     8     3    1.6418E+02 -2.2060E+00   1.6639E+02  0.000E+00  0.000E+00  0.000E+00  1.01230E+03  2.921E+00  4.236E+01  4.316E+00 -1.704E-01
   1   13    3     8     4    1.6639E+02 -3.5433E+00   1.6993E+02  0.000E+00  0.000E+00  0.000E+00  1.00607E+03  2.940E+00  4.263E+01  4.344E+00 -2.719E-01
   1   13    2     8     5    1.6993E+02 -2.5486E+00   1.7248E+02  0.000E+00  0.000E+00  0.000E+00  9.99835E+02  2.960E+00  4.292E+01  4.374E+00 -1.942E-01
   1   13    1     8     6    1.7248E+02 -1.9689E+00   1.7445E+02  0.000E+00  0.000E+00  0.000E+00  9.94850E+02  2.975E+00  4.313E+01  2.637E+00 -2.489E-01
   1    8    6     9     1    0.0000E+00  0.0000E+00   0.0000E+00  0.000E+00  0.000E+00  0.000E+00  1.07875E+03  0.000E+00  4.000E+00  0.000E+00  1.000E+00
   1    8    5     9     2    0.0000E+00  0.0000E+00   0.0000E+00  0.000E+00  0.000E+00  0.000E+00  1.07825E+03  0.000E+00  4.000E+00  0.000E+00  1.000E+00





UNSATURATED ZONE PACKAGE VOLUMETRIC BUDGET FOR  TIME STEP    30 STRESS PERIOD   48
  ------------------------------------------------------------------------------



     CUMULATIVE VOLUMES      L**3       RATES FOR THIS TIME STEP      L**3/T
     ------------------                 ------------------------

           IN:                                      IN:
           ---                                      ---
        INFILTRATION =  2438700253.7833          INFILTRATION =           0.8475

          OUT:                                     OUT:
          ----                                     ----
              UZF ET =  1704306277.1851                UZF ET =           0.7500
        UZF RECHARGE =   269917277.1342          UZF RECHARGE =          18.5305

            IN - OUT =   464476699.4639              IN - OUT =         -18.4330

          STORAGE:                                 STORAGE:
          --------                                 --------
      STORAGE CHANGE =   466144976.6397        STORAGE CHANGE =         -18.4330

 PERCENT DISCREPANCY IS DIFFERENCE BETWEEN IN-OUT MINUS CHANGE IN STORAGE
 DIVIDED BY THE AVERAGE OF IN AND OUT TIMES 100

 PERCENT DISCREPANCY =          -0.02     PERCENT DISCREPANCY =           0.00






1
  VOLUMETRIC BUDGET FOR AGRICULTURAL FIELDS AT  END OF TIME STEP   30, STRESS PERIOD  48
  ------------------------------------------------------------------------------

     CUMULATIVE VOLUMES      L**3       RATES FOR THIS TIME STEP      L**3/T
     ------------------                 ------------------------

           IN:                                      IN:
           ---                                      ---
           AG WELLS      =  1123160832.0000             AG WELLS      =           0.0000
      DIVERSION SEGMENTS =  1210745088.0000        DIVERSION SEGMENTS =           0.0000
           GW IRRIGATION =           0.0000             GW IRRIGATION =           0.0000
           SW IRRIGATION =           0.0000             SW IRRIGATION =           0.0000
        SYSTEM LOSSES GW =           0.0000          SYSTEM LOSSES GW =           0.0000
        SYSTEM LOSSES SW =           0.0000          SYSTEM LOSSES SW =           0.0000

                TOTAL IN =  2333905920.0000                  TOTAL IN =           0.0000

          OUT:                                     OUT:
          ----                                     ----
           AG WELLS      =           0.0000             AG WELLS      =           0.0000
      DIVERSION SEGMENTS =           0.0000        DIVERSION SEGMENTS =           0.0000
           GW IRRIGATION =  1123160832.0000             GW IRRIGATION =           0.0000
           SW IRRIGATION =  1210767104.0000             SW IRRIGATION =           0.0000
        SYSTEM LOSSES GW =           0.0000          SYSTEM LOSSES GW =           0.0000
        SYSTEM LOSSES SW =           0.0000          SYSTEM LOSSES SW =           0.0000

               TOTAL OUT =  2333927936.0000                 TOTAL OUT =           0.0000

                IN - OUT =      -22016.0000                  IN - OUT =           0.0000

     PERCENT DISCREPANCY =          -0.00         PERCENT DISCREPANCY =           0.00



1
  VOLUMETRIC BUDGET FOR ENTIRE MODEL AT END OF TIME STEP   30, STRESS PERIOD  48
  ------------------------------------------------------------------------------

     CUMULATIVE VOLUMES      L**3       RATES FOR THIS TIME STEP      L**3/T
     ------------------                 ------------------------

           IN:                                      IN:
           ---                                      ---
             STORAGE     =  1722079488.0000               STORAGE     =          10.0791
       CONSTANT HEAD     =           0.0000         CONSTANT HEAD     =           0.0000
     HEAD DEP BOUNDS     =    35393620.0000       HEAD DEP BOUNDS     =           0.2870
      STREAM LEAKAGE     =  1487725952.0000        STREAM LEAKAGE     =          11.5701
        UZF RECHARGE     =   269917312.0000          UZF RECHARGE     =          18.5305
               GW ET     =           0.0000                 GW ET     =           0.0000
     SURFACE LEAKAGE     =           0.0000       SURFACE LEAKAGE     =           0.0000
           AG WELLS      =           0.0000             AG WELLS      =           0.0000

                TOTAL IN =  3515116544.0000                  TOTAL IN =          40.4667

          OUT:                                     OUT:
          ----                                     ----
             STORAGE     =  1037227968.0000               STORAGE     =          29.9077
       CONSTANT HEAD     =           0.0000         CONSTANT HEAD     =           0.0000
     HEAD DEP BOUNDS     =    35941500.0000       HEAD DEP BOUNDS     =           0.2887
      STREAM LEAKAGE     =  1315618048.0000        STREAM LEAKAGE     =          10.2668
        UZF RECHARGE     =           0.0000          UZF RECHARGE     =           0.0000
               GW ET     =     3143644.7500                 GW ET     =           0.0000
     SURFACE LEAKAGE     =           0.0000       SURFACE LEAKAGE     =           0.0000
           AG WELLS      =  1123160832.0000             AG WELLS      =           0.0000

               TOTAL OUT =  3515091968.0000                 TOTAL OUT =          40.4632

                IN - OUT =       24576.0000                  IN - OUT =       3.5400E-03

     PERCENT DISCREPANCY =           0.00         PERCENT DISCREPANCY =           0.01






         TIME SUMMARY AT END OF TIME STEP   30 IN STRESS PERIOD   48
                    SECONDS     MINUTES      HOURS       DAYS        YEARS
                    -----------------------------------------------------------
   TIME STEP LENGTH  87667.      1461.1      24.352      1.0147     2.77799E-03
 STRESS PERIOD TIME 2.63000E+06  43833.      730.56      30.440     8.33397E-02
         TOTAL TIME 1.23695E+08 2.06158E+06  34360.      1431.7      3.9197    
1
1
                            STRESS PERIOD NO.   49, LENGTH =   2630000.    
                            -----------------------------------------------

                              NUMBER OF TIME STEPS =    30

                               MULTIPLIER FOR DELT =     1.000

                            INITIAL TIME STEP SIZE =   87666.66    

 REUSING NON-PARAMETER GHB CELLS FROM LAST STRESS PERIOD

      2 GHB CELLS

 REUSING STREAM SEGMENT DATA FROM LAST STRESS PERIOD



            AREAL INFILTRATION RATE
 READING ON UNIT   19 WITH FORMAT: (FREE)              

            1           2           3           4           5           6           7           8           9          10
 ........................................................................................................................
   1   1.0000E-10  2.0000E-10   0.000       0.000       0.000       0.000       0.000       0.000       0.000       0.000    
   2   2.0000E-10  1.0000E-10  2.0000E-10   0.000       0.000      8.0000E-10  8.0000E-10  5.0000E-10   0.000       0.000    
   3    0.000      5.0000E-10  1.0000E-10  1.0000E-10  8.0000E-10  8.0000E-10  5.0000E-10  5.0000E-10   0.000       0.000    
   4   8.0000E-10  5.0000E-10  1.0000E-10  1.0000E-10  1.0000E-10  1.0000E-10  1.0000E-10  1.0000E-10  2.0000E-10   0.000    
   5   8.0000E-10  5.0000E-10  1.0000E-10  1.0000E-10  1.0000E-10  1.0000E-10  1.0000E-10  1.0000E-10  1.0000E-10  1.0000E-10
   6   8.0000E-10  5.0000E-10  5.0000E-10  2.0000E-10  2.0000E-10  1.0000E-10  1.0000E-10  1.0000E-10  1.0000E-10  5.0000E-10
   7   8.0000E-10  5.0000E-10  5.0000E-10  2.0000E-10  2.0000E-10  1.0000E-10  1.0000E-10  2.0000E-10  2.0000E-10   0.000    
   8    0.000      5.0000E-10  5.0000E-10  2.0000E-10  2.0000E-10  1.0000E-10  1.0000E-10  2.0000E-10  5.0000E-10   0.000    
   9    0.000      5.0000E-10  5.0000E-10  2.0000E-10  2.0000E-10  1.0000E-10  1.0000E-10  2.0000E-10  5.0000E-10   0.000    
  10    0.000      5.0000E-10  5.0000E-10  2.0000E-10  2.0000E-10  1.0000E-10  1.0000E-10  2.0000E-10  5.0000E-10  8.0000E-10
  11    0.000      1.0000E-10  1.0000E-10  1.0000E-10  1.0000E-10  1.0000E-10  1.0000E-10  2.0000E-10  5.0000E-10   0.000    
  12   1.0000E-10  1.0000E-10  1.0000E-10  1.0000E-10  1.0000E-10  1.0000E-10  1.0000E-10  1.0000E-10  2.0000E-10   0.000    
  13   1.0000E-10  1.0000E-10  2.0000E-10  2.0000E-10  2.0000E-10  2.0000E-10  2.0000E-10  1.0000E-10  1.0000E-10   0.000    
  14    0.000      2.0000E-10  5.0000E-10  5.0000E-10  5.0000E-10  5.0000E-10  5.0000E-10  2.0000E-10  1.0000E-10   0.000    
  15    0.000       0.000      8.0000E-10  8.0000E-10  8.0000E-10  8.0000E-10   0.000       0.000       0.000       0.000    

                  ET RATE =  5.000000E-10

 USING ET EXTINCTION DEPTH FROM PREVIOUS STRESS PERIOD. CURRENT PERIOD IS:      49

 USING EXTINCTION WATER CONTENT FROM PREVIOUS STRESS PERIOD. CURRENT PERIOD IS:      49

 USING AIR ENTRY PRESSURE FROM PREVIOUS STRESS PERIOD. CURRENT PERIOD IS:      49

 USING ROOT PRESSURE HEAD FROM PREVIOUS STRESS PERIOD. CURRENT PERIOD IS:      49

 USING ROOT ACTIVITY FROM PREVIOUS STRESS PERIOD. CURRENT PERIOD IS:      49

 PROCESSING AG STRESS PERIOD DATA

 READING AG STRESS PERIOD DATA

 READING IRRIGATION SEGMENT

 READING IRRIGATION WELL

 READING SUPPLEMENTAL WELL

 END PROCESSING AG STRESS PERIOD DATA OPTIONS
 
 SOLVING FOR HEAD 
                                                   Max.-Head-Change                         Max.-Flux-Residual
  Residual-Control   Outer-Iter.   Inner-Iter.     Column Row Layer    Maximum-Head-Change  Column Row Layer    Maximum-Flux-Residual          L2-NORM 
          0                 1           2             4    7     1       0.4751588899E-01       4    7    1         0.2494927799E+01      0.6136427820E+01
          0                 2           2             4    7     1       0.1493467654E-01       4    7    1         0.7872527968E+00      0.1585965727E+01
          0                 3           2             4    7     1       0.4692834876E-02       4    7    1         0.2471538423E+00      0.4805899137E+00
          0                 4           2             4    7     1       0.1474226271E-02       4    7    1         0.7767387654E-01      0.1501584531E+00
          0                 5           2             4    7     1       0.4630082594E-03       4    7    1         0.2439861298E-01      0.4694562375E-01
          0                 6           2             4    7     1       0.1453834890E-03       4    7    1         0.7662430770E-02      0.1467935083E-01
          0                 7           1             4    7     1       0.4564034060E-04       4    7    1         0.2405854331E-02      0.4590106221E-02

    ------------------------------------------------
       NWT REQUIRED            7 OUTER ITERATIONS 
       AND A TOTAL OF         13 INNER ITERATIONS.
    ------------------------------------------------

 NO OUTPUT CONTROL FOR STRESS PERIOD   49   TIME STEP    1
 
 SOLVING FOR HEAD 
                                                   Max.-Head-Change                         Max.-Flux-Residual
  Residual-Control   Outer-Iter.   Inner-Iter.     Column Row Layer    Maximum-Head-Change  Column Row Layer    Maximum-Flux-Residual          L2-NORM 
          0                 1           2             4    7     1       0.4663698197E-01       4    7    1         0.2448495212E+01      0.6065444631E+01
          0                 2           2             4    7     1       0.1465910498E-01       4    7    1         0.7727193463E+00      0.1560325338E+01
          0                 3           2             4    7     1       0.4606452951E-02       4    7    1         0.2425947316E+00      0.4723988556E+00
          0                 4           2             4    7     1       0.1447154431E-02       4    7    1         0.7624500783E-01      0.1475939820E+00
          0                 5           2             4    7     1       0.4545256789E-03       4    7    1         0.2395082529E-01      0.4614353841E-01
          0                 6           2             4    7     1       0.1427260597E-03       4    7    1         0.7522129521E-02      0.1442848997E-01
          0                 7           1             4    7     1       0.4480795153E-04       4    7    1         0.2361902458E-02      0.4511645991E-02

    ------------------------------------------------
       NWT REQUIRED            7 OUTER ITERATIONS 
       AND A TOTAL OF         13 INNER ITERATIONS.
    ------------------------------------------------

 NO OUTPUT CONTROL FOR STRESS PERIOD   49   TIME STEP    2
 
 SOLVING FOR HEAD 
                                                   Max.-Head-Change                         Max.-Flux-Residual
  Residual-Control   Outer-Iter.   Inner-Iter.     Column Row Layer    Maximum-Head-Change  Column Row Layer    Maximum-Flux-Residual          L2-NORM 
          0                 1           2             4    7     1       0.4578078747E-01       4    7    1         0.2403256637E+01      0.5996291156E+01
          0                 2           2             4    7     1       0.1439071444E-01       4    7    1         0.7585620520E+00      0.1535402099E+01
          0                 3           2             4    7     1       0.4522338872E-02       4    7    1         0.2381546747E+00      0.4644375006E+00
          0                 4           2             4    7     1       0.1420798072E-02       4    7    1         0.7485371718E-01      0.1451012843E+00
          0                 5           2             4    7     1       0.4462686214E-03       4    7    1         0.2351489071E-01      0.4536387389E-01
          0                 6           2             4    7     1       0.1401396590E-03       4    7    1         0.7385563614E-02      0.1418463312E-01
          0                 7           1             4    7     1       0.4399791627E-04       4    7    1         0.2319126802E-02      0.4435373972E-02

    ------------------------------------------------
       NWT REQUIRED            7 OUTER ITERATIONS 
       AND A TOTAL OF         13 INNER ITERATIONS.
    ------------------------------------------------

 NO OUTPUT CONTROL FOR STRESS PERIOD   49   TIME STEP    3
 
 SOLVING FOR HEAD 
                                                   Max.-Head-Change                         Max.-Flux-Residual
  Residual-Control   Outer-Iter.   Inner-Iter.     Column Row Layer    Maximum-Head-Change  Column Row Layer    Maximum-Flux-Residual          L2-NORM 
          0                 1           2             4    7     1       0.4494694861E-01       4    7    1         0.2359194692E+01      0.5929038214E+01
          0                 2           2             4    7     1       0.1412938077E-01       4    7    1         0.7447748653E+00      0.1511170882E+01
          0                 3           2             4    7     1       0.4440450170E-02       4    7    1         0.2338315679E+00      0.4566968549E+00
          0                 4           2             4    7     1       0.1395142860E-02       4    7    1         0.7349928821E-01      0.1426775136E+00
          0                 5           2             4    7     1       0.4382322973E-03       4    7    1         0.2309056806E-01      0.4460574632E-01
          0                 6           2             4    7     1       0.1376226997E-03       4    7    1         0.7252652656E-02      0.1394750503E-01
          0                 7           1             4    7     1       0.4320971333E-04       4    7    1         0.2277500791E-02      0.4361204243E-02

    ------------------------------------------------
       NWT REQUIRED            7 OUTER ITERATIONS 
       AND A TOTAL OF         13 INNER ITERATIONS.
    ------------------------------------------------

 NO OUTPUT CONTROL FOR STRESS PERIOD   49   TIME STEP    4
 
 SOLVING FOR HEAD 
                                                   Max.-Head-Change                         Max.-Flux-Residual
  Residual-Control   Outer-Iter.   Inner-Iter.     Column Row Layer    Maximum-Head-Change  Column Row Layer    Maximum-Flux-Residual          L2-NORM 
          0                 1           2             4    7     1       0.4413479722E-01       4    7    1         0.2316275516E+01      0.5863478536E+01
          0                 2           2             4    7     1       0.1387488382E-01       4    7    1         0.7313465938E+00      0.1487599928E+01
          0                 3           2             4    7     1       0.4360714850E-02       4    7    1         0.2296217273E+00      0.4491676043E+00
          0                 4           2             4    7     1       0.1370165395E-02       4    7    1         0.7218051843E-01      0.1403198220E+00
          0                 5           2             4    7     1       0.4304091410E-03       4    7    1         0.2267746707E-01      0.4386826725E-01
          0                 6           2             4    7     1       0.1351727466E-03       4    7    1         0.7123270611E-02      0.1371682942E-01
          0                 7           1             4    7     1       0.4244256136E-04       4    7    1         0.2236983887E-02      0.4289051328E-02

    ------------------------------------------------
       NWT REQUIRED            7 OUTER ITERATIONS 
       AND A TOTAL OF         13 INNER ITERATIONS.
    ------------------------------------------------

 NO OUTPUT CONTROL FOR STRESS PERIOD   49   TIME STEP    5
 
 SOLVING FOR HEAD 
                                                   Max.-Head-Change                         Max.-Flux-Residual
  Residual-Control   Outer-Iter.   Inner-Iter.     Column Row Layer    Maximum-Head-Change  Column Row Layer    Maximum-Flux-Residual          L2-NORM 
          0                 1           2             4    7     1       0.4334420664E-01       4    7    1         0.2274493423E+01      0.5799365060E+01
          0                 2           2             4    7     1       0.1362717552E-01       4    7    1         0.7182750427E+00      0.1464668671E+01
          0                 3           2             4    7     1       0.4283115461E-02       4    7    1         0.2255243241E+00      0.4418451264E+00
          0                 4           2             4    7     1       0.1345859526E-02       4    7    1         0.7089710992E-01      0.1380268408E+00
          0                 5           2             4    7     1       0.4227970310E-03       4    7    1         0.2227548334E-01      0.4315101135E-01
          0                 6           1             4    7     1       0.1327890802E-03       4    7    1         0.6997381618E-02      0.1349247418E-01
          0                 7           1             4    7     1       0.4169621925E-04       4    7    1         0.2197563981E-02      0.4218874366E-02

    ------------------------------------------------
       NWT REQUIRED            7 OUTER ITERATIONS 
       AND A TOTAL OF         12 INNER ITERATIONS.
    ------------------------------------------------

 NO OUTPUT CONTROL FOR STRESS PERIOD   49   TIME STEP    6
 
 SOLVING FOR HEAD 
                                                   Max.-Head-Change                         Max.-Flux-Residual
  Residual-Control   Outer-Iter.   Inner-Iter.     Column Row Layer    Maximum-Head-Change  Column Row Layer    Maximum-Flux-Residual          L2-NORM 
          0                 1           2             4    7     1       0.4257433583E-01       4    7    1         0.2233804637E+01      0.5736800205E+01
          0                 2           2             4    7     1       0.1338598682E-01       4    7    1         0.7055462394E+00      0.1442352191E+01
          0                 3           2             4    7     1       0.4207566155E-02       4    7    1         0.2215348857E+00      0.4347199989E+00
          0                 4           2             4    7     1       0.1322197923E-02       4    7    1         0.6964763676E-01      0.1357955736E+00
          0                 5           2             4    7     1       0.4153872822E-03       4    7    1         0.2188416312E-01      0.4245304508E-01
          0                 6           1             4    7     1       0.1304689435E-03       4    7    1         0.6874841565E-02      0.1327414795E-01
          0                 7           1             4    7     1       0.4096981399E-04       4    7    1         0.2159195330E-02      0.4150580917E-02

    ------------------------------------------------
       NWT REQUIRED            7 OUTER ITERATIONS 
       AND A TOTAL OF         12 INNER ITERATIONS.
    ------------------------------------------------

 NO OUTPUT CONTROL FOR STRESS PERIOD   49   TIME STEP    7
 
 SOLVING FOR HEAD 
                                                   Max.-Head-Change                         Max.-Flux-Residual
  Residual-Control   Outer-Iter.   Inner-Iter.     Column Row Layer    Maximum-Head-Change  Column Row Layer    Maximum-Flux-Residual          L2-NORM 
          0                 1           2             4    7     1       0.4182489607E-01       4    7    1         0.2194194984E+01      0.5675739859E+01
          0                 2           2             4    7     1       0.1315121849E-01       4    7    1         0.6931553015E+00      0.1420632252E+01
          0                 3           2             4    7     1       0.4134033342E-02       4    7    1         0.2176517353E+00      0.4277863862E+00
          0                 4           2             4    7     1       0.1299169353E-02       4    7    1         0.6843153371E-01      0.1336242046E+00
          0                 5           2             4    7     1       0.4081761755E-03       4    7    1         0.2150331789E-01      0.4177380326E-01
          0                 6           1             4    7     1       0.1282111159E-03       4    7    1         0.6755588152E-02      0.1306167491E-01
          0                 7           1             4    7     1       0.4026294641E-04       4    7    1         0.2121857499E-02      0.4084117786E-02

    ------------------------------------------------
       NWT REQUIRED            7 OUTER ITERATIONS 
       AND A TOTAL OF         12 INNER ITERATIONS.
    ------------------------------------------------

 NO OUTPUT CONTROL FOR STRESS PERIOD   49   TIME STEP    8
 
 SOLVING FOR HEAD 
                                                   Max.-Head-Change                         Max.-Flux-Residual
  Residual-Control   Outer-Iter.   Inner-Iter.     Column Row Layer    Maximum-Head-Change  Column Row Layer    Maximum-Flux-Residual          L2-NORM 
          0                 1           2             4    7     1       0.4109530921E-01       4    7    1         0.2155634355E+01      0.5616123924E+01
          0                 2           2             4    7     1       0.1292268631E-01       4    7    1         0.6810926257E+00      0.1399488525E+01
          0                 3           2             4    7     1       0.4062458455E-02       4    7    1         0.2138718144E+00      0.4210379213E+00
          0                 4           2             4    7     1       0.1276755227E-02       4    7    1         0.6724782871E-01      0.1315107513E+00
          0                 5           2             4    7     1       0.4011578191E-03       4    7    1         0.2113263922E-01      0.4111266760E-01
          0                 6           1             4    7     1       0.1260137318E-03       4    7    1         0.6639523671E-02      0.1285486216E-01
          0                 7           1             4    7     1       0.3957502749E-04       4    7    1         0.2085519623E-02      0.4019424290E-02

    ------------------------------------------------
       NWT REQUIRED            7 OUTER ITERATIONS 
       AND A TOTAL OF         12 INNER ITERATIONS.
    ------------------------------------------------

 NO OUTPUT CONTROL FOR STRESS PERIOD   49   TIME STEP    9
 
 SOLVING FOR HEAD 
                                                   Max.-Head-Change                         Max.-Flux-Residual
  Residual-Control   Outer-Iter.   Inner-Iter.     Column Row Layer    Maximum-Head-Change  Column Row Layer    Maximum-Flux-Residual          L2-NORM 
          0                 1           2             4    7     1       0.4038513008E-01       4    7    1         0.2118100228E+01      0.5557897186E+01
          0                 2           2             4    7     1       0.1270024142E-01       4    7    1         0.6693507516E+00      0.1378917569E+01
          0                 3           2             4    7     1       0.3992792136E-02       4    7    1         0.2101926216E+00      0.4144673277E+00
          0                 4           2             4    7     1       0.1254939307E-02       4    7    1         0.6609569488E-01      0.1294528585E+00
          0                 5           2             4    7     1       0.3943269061E-03       4    7    1         0.2077185557E-01      0.4046890226E-01
          0                 6           1             4    7     1       0.1238750671E-03       4    7    1         0.6526559490E-02      0.1265347999E-01
          0                 7           1             4    7     1       0.3890549874E-04       4    7    1         0.2050152873E-02      0.3956428653E-02

    ------------------------------------------------
       NWT REQUIRED            7 OUTER ITERATIONS 
       AND A TOTAL OF         12 INNER ITERATIONS.
    ------------------------------------------------

 NO OUTPUT CONTROL FOR STRESS PERIOD   49   TIME STEP   10
 
 SOLVING FOR HEAD 
                                                   Max.-Head-Change                         Max.-Flux-Residual
  Residual-Control   Outer-Iter.   Inner-Iter.     Column Row Layer    Maximum-Head-Change  Column Row Layer    Maximum-Flux-Residual          L2-NORM 
          0                 1           2             4    7     1       0.3969377519E-01       4    7    1         0.2081561758E+01      0.5500992582E+01
          0                 2           2             4    7     1       0.1248370205E-01       4    7    1         0.6579200321E+00      0.1358842031E+01
          0                 3           2             4    7     1       0.3924977872E-02       4    7    1         0.2066111558E+00      0.4080687528E+00
          0                 4           2             4    7     1       0.1233704019E-02       4    7    1         0.6497419928E-01      0.1274489537E+00
          0                 5           2             4    7     1       0.3876779690E-03       4    7    1         0.2042067673E-01      0.3984202145E-01
          0                 6           1             4    7     1       0.1217934197E-03       4    7    1         0.6416605318E-02      0.1245737753E-01
          0                 7           1             4    7     1       0.3825383041E-04       4    7    1         0.2015729167E-02      0.3895084130E-02

    ------------------------------------------------
       NWT REQUIRED            7 OUTER ITERATIONS 
       AND A TOTAL OF         12 INNER ITERATIONS.
    ------------------------------------------------

 NO OUTPUT CONTROL FOR STRESS PERIOD   49   TIME STEP   11
 
 SOLVING FOR HEAD 
                                                   Max.-Head-Change                         Max.-Flux-Residual
  Residual-Control   Outer-Iter.   Inner-Iter.     Column Row Layer    Maximum-Head-Change  Column Row Layer    Maximum-Flux-Residual          L2-NORM 
          0                 1           2             4    7     1       0.3902067204E-01       4    7    1         0.2045989109E+01      0.5445232240E+01
          0                 2           2             4    7     1       0.1227288399E-01       4    7    1         0.6467909603E+00      0.1339296548E+01
          0                 3           2             4    7     1       0.3858956472E-02       4    7    1         0.2031243488E+00      0.4018362784E+00
          0                 4           2             4    7     1       0.1213030404E-02       4    7    1         0.6388235714E-01      0.1254969735E+00
          0                 5           2             4    7     1       0.3812049520E-03       4    7    1         0.2007878753E-01      0.3923137708E-01
          0                 6           1             4    7     1       0.1197668605E-03       4    7    1         0.6309560579E-02      0.1226635267E-01
          0                 7           1             4    7     1       0.3761940937E-04       4    7    1         0.1982216499E-02      0.3835329326E-02

    ------------------------------------------------
       NWT REQUIRED            7 OUTER ITERATIONS 
       AND A TOTAL OF         12 INNER ITERATIONS.
    ------------------------------------------------

 NO OUTPUT CONTROL FOR STRESS PERIOD   49   TIME STEP   12
 
 SOLVING FOR HEAD 
                                                   Max.-Head-Change                         Max.-Flux-Residual
  Residual-Control   Outer-Iter.   Inner-Iter.     Column Row Layer    Maximum-Head-Change  Column Row Layer    Maximum-Flux-Residual          L2-NORM 
          0                 1           2             4    7     1       0.3836552133E-01       4    7    1         0.2011367259E+01      0.5390735081E+01
          0                 2           2             4    7     1       0.1206768730E-01       4    7    1         0.6359585080E+00      0.1320251034E+01
          0                 3           2             4    7     1       0.3794694897E-02       4    7    1         0.1997305232E+00      0.3957644376E+00
          0                 4           2             4    7     1       0.1192907616E-02       4    7    1         0.6281961533E-01      0.1235952633E+00
          0                 5           2             4    7     1       0.3749043166E-03       4    7    1         0.1974600667E-01      0.3863645440E-01
          0                 6           1             4    7     1       0.1177942398E-03       4    7    1         0.6205366156E-02      0.1208024284E-01
          0                 7           1             4    7     1       0.3700186369E-04       4    7    1         0.1949595669E-02      0.3777107336E-02

    ------------------------------------------------
       NWT REQUIRED            7 OUTER ITERATIONS 
       AND A TOTAL OF         12 INNER ITERATIONS.
    ------------------------------------------------

 NO OUTPUT CONTROL FOR STRESS PERIOD   49   TIME STEP   13
 
 SOLVING FOR HEAD 
                                                   Max.-Head-Change                         Max.-Flux-Residual
  Residual-Control   Outer-Iter.   Inner-Iter.     Column Row Layer    Maximum-Head-Change  Column Row Layer    Maximum-Flux-Residual          L2-NORM 
          0                 1           2             4    7     1       0.3772747511E-01       4    7    1         0.1977651043E+01      0.5337446095E+01
          0                 2           2             4    7     1       0.1186784889E-01       4    7    1         0.6254086904E+00      0.1301684880E+01
          0                 3           2             4    7     1       0.3732111486E-02       4    7    1         0.1964253373E+00      0.3898466690E+00
          0                 4           2             4    7     1       0.1173310299E-02       4    7    1         0.6178462625E-01      0.1217417728E+00
          0                 5           2             4    7     1       0.3687681848E-03       4    7    1         0.1942191561E-01      0.3805661243E-01
          0                 6           1             4    7     1       0.1158731099E-03       4    7    1         0.6103892042E-02      0.1189885002E-01
          0                 7           1             4    7     1       0.3640043330E-04       4    7    1         0.1917826292E-02      0.3720362759E-02

    ------------------------------------------------
       NWT REQUIRED            7 OUTER ITERATIONS 
       AND A TOTAL OF         12 INNER ITERATIONS.
    ------------------------------------------------

 NO OUTPUT CONTROL FOR STRESS PERIOD   49   TIME STEP   14
 
 SOLVING FOR HEAD 
                                                   Max.-Head-Change                         Max.-Flux-Residual
  Residual-Control   Outer-Iter.   Inner-Iter.     Column Row Layer    Maximum-Head-Change  Column Row Layer    Maximum-Flux-Residual          L2-NORM 
          0                 1           2             4    7     1       0.3710639885E-01       4    7    1         0.1944833893E+01      0.5285337573E+01
          0                 2           2             4    7     1       0.1167332140E-01       4    7    1         0.6151392294E+00      0.1283586480E+01
          0                 3           2             4    7     1       0.3671189898E-02       4    7    1         0.1932079864E+00      0.3840792699E+00
          0                 4           2             4    7     1       0.1154232896E-02       4    7    1         0.6077711373E-01      0.1199353512E+00
          0                 5           2             4    7     1       0.3627946912E-03       4    7    1         0.1910642080E-01      0.3749149315E-01
          0                 6           1             4    7     1       0.1140028500E-03       4    7    1         0.6005106867E-02      0.1172206194E-01
          0                 7           1             4    7     1       0.3581491134E-04       4    7    1         0.1886897914E-02      0.3665058376E-02

    ------------------------------------------------
       NWT REQUIRED            7 OUTER ITERATIONS 
       AND A TOTAL OF         12 INNER ITERATIONS.
    ------------------------------------------------

 NO OUTPUT CONTROL FOR STRESS PERIOD   49   TIME STEP   15
 
 SOLVING FOR HEAD 
                                                   Max.-Head-Change                         Max.-Flux-Residual
  Residual-Control   Outer-Iter.   Inner-Iter.     Column Row Layer    Maximum-Head-Change  Column Row Layer    Maximum-Flux-Residual          L2-NORM 
          0                 1           2             4    7     1       0.3650146303E-01       4    7    1         0.1912871805E+01      0.5234361331E+01
          0                 2           2             4    7     1       0.1148384677E-01       4    7    1         0.6051364260E+00      0.1265938041E+01
          0                 3           2             4    7     1       0.3611849866E-02       4    7    1         0.1900742093E+00      0.3784565716E+00
          0                 4           2             4    7     1       0.1135650449E-02       4    7    1         0.5979575256E-01      0.1181742241E+00
          0                 5           2             4    7     1       0.3569760756E-03       4    7    1         0.1879911017E-01      0.3694054126E-01
          0                 6           1             4    7     1       0.1121810480E-03       4    7    1         0.5908882544E-02      0.1154970517E-01
          0                 7           1             4    7     1       0.3524454899E-04       4    7    1         0.1856770750E-02      0.3611139939E-02

    ------------------------------------------------
       NWT REQUIRED            7 OUTER ITERATIONS 
       AND A TOTAL OF         12 INNER ITERATIONS.
    ------------------------------------------------

 NO OUTPUT CONTROL FOR STRESS PERIOD   49   TIME STEP   16
 
 SOLVING FOR HEAD 
                                                   Max.-Head-Change                         Max.-Flux-Residual
  Residual-Control   Outer-Iter.   Inner-Iter.     Column Row Layer    Maximum-Head-Change  Column Row Layer    Maximum-Flux-Residual          L2-NORM 
          0                 1           2             4    7     1       0.3591255103E-01       4    7    1         0.1881759116E+01      0.5184492703E+01
          0                 2           2             4    7     1       0.1129938312E-01       4    7    1         0.5953983026E+00      0.1248727834E+01
          0                 3           2             4    7     1       0.3554076717E-02       4    7    1         0.1870232910E+00      0.3729747822E+00
          0                 4           2             4    7     1       0.1117557910E-02       4    7    1         0.5884029404E-01      0.1164572098E+00
          0                 5           2             4    7     1       0.3513106250E-03       4    7    1         0.1849989842E-01      0.3640338841E-01
          0                 6           1             4    7     1       0.1104071281E-03       4    7    1         0.5815190214E-02      0.1138166402E-01
          0                 7           1             4    7     1       0.3468915591E-04       4    7    1         0.1827435149E-02      0.3558571471E-02

    ------------------------------------------------
       NWT REQUIRED            7 OUTER ITERATIONS 
       AND A TOTAL OF         12 INNER ITERATIONS.
    ------------------------------------------------

 NO OUTPUT CONTROL FOR STRESS PERIOD   49   TIME STEP   17
 
 SOLVING FOR HEAD 
                                                   Max.-Head-Change                         Max.-Flux-Residual
  Residual-Control   Outer-Iter.   Inner-Iter.     Column Row Layer    Maximum-Head-Change  Column Row Layer    Maximum-Flux-Residual          L2-NORM 
          0                 1           2             4    7     1       0.3533885298E-01       4    7    1         0.1851452721E+01      0.5135681745E+01
          0                 2           2             4    7     1       0.1111967902E-01       4    7    1         0.5859114990E+00      0.1231937846E+01
          0                 3           2             4    7     1       0.3497701120E-02       4    7    1         0.1840510818E+00      0.3675947146E+00
          0                 4           2             4    7     1       0.1099837973E-02       4    7    1         0.5790745846E-01      0.1147308558E+00
          0                 5           2             4    7     1       0.3457312710E-03       4    7    1         0.1820655410E-01      0.3584988072E-01
          0                 6           1             4    7     1       0.1086477211E-03       4    7    1         0.5722789666E-02      0.1120434394E-01
          0                 7           1             4    7     1       0.3413360138E-04       4    7    1         0.1798286992E-02      0.3501800601E-02

    ------------------------------------------------
       NWT REQUIRED            7 OUTER ITERATIONS 
       AND A TOTAL OF         12 INNER ITERATIONS.
    ------------------------------------------------

 NO OUTPUT CONTROL FOR STRESS PERIOD   49   TIME STEP   18
 
 SOLVING FOR HEAD 
                                                   Max.-Head-Change                         Max.-Flux-Residual
  Residual-Control   Outer-Iter.   Inner-Iter.     Column Row Layer    Maximum-Head-Change  Column Row Layer    Maximum-Flux-Residual          L2-NORM 
          0                 1           2             4    7     1       0.3477647858E-01       4    7    1         0.1821922860E+01      0.5011591386E+01
          0                 2           2             4    7     1       0.1094019068E-01       4    7    1         0.5765940975E+00      0.1169792066E+01
          0                 3           2             4    7     1       0.3439635755E-02       4    7    1         0.1810666297E+00      0.3444757366E+00
          0                 4           2             4    7     1       0.1080807994E-02       4    7    1         0.5693897884E-01      0.1067866385E+00
          0                 5           2             4    7     1       0.3394211177E-03       4    7    1         0.1788819046E-01      0.3318698650E-01
          0                 6           1             4    7     1       0.1065351172E-03       4    7    1         0.5616945848E-02      0.1032205504E-01
          0                 7           1             4    7     1       0.3342118346E-04       4    7    1         0.1762776832E-02      0.3211531381E-02

    ------------------------------------------------
       NWT REQUIRED            7 OUTER ITERATIONS 
       AND A TOTAL OF         12 INNER ITERATIONS.
    ------------------------------------------------

 NO OUTPUT CONTROL FOR STRESS PERIOD   49   TIME STEP   19
 
 SOLVING FOR HEAD 
                                                   Max.-Head-Change                         Max.-Flux-Residual
  Residual-Control   Outer-Iter.   Inner-Iter.     Column Row Layer    Maximum-Head-Change  Column Row Layer    Maximum-Flux-Residual          L2-NORM 
          0                 1           2             4    7     1       0.3420841180E-01       4    7    1         0.1792654554E+01      0.4890003356E+01
          0                 2           2             4    7     1       0.1075417612E-01       4    7    1         0.5671262995E+00      0.1126498861E+01
          0                 3           2             4    7     1       0.3378194625E-02       4    7    1         0.1779548120E+00      0.3317191855E+00
          0                 4           2             4    7     1       0.1060461783E-02       4    7    1         0.5590958110E-01      0.1029640996E+00
          0                 5           2             4    7     1       0.3326907719E-03       4    7    1         0.1754719999E-01      0.3202639204E-01
          0                 6           1             4    7     1       0.1043156799E-03       4    7    1         0.5504196630E-02      0.9966601740E-02
          0                 7           1             4    7     1       0.3269228709E-04       4    7    1         0.1725626222E-02      0.3102234394E-02

    ------------------------------------------------
       NWT REQUIRED            7 OUTER ITERATIONS 
       AND A TOTAL OF         12 INNER ITERATIONS.
    ------------------------------------------------

 NO OUTPUT CONTROL FOR STRESS PERIOD   49   TIME STEP   20
 
 SOLVING FOR HEAD 
                                                   Max.-Head-Change                         Max.-Flux-Residual
  Residual-Control   Outer-Iter.   Inner-Iter.     Column Row Layer    Maximum-Head-Change  Column Row Layer    Maximum-Flux-Residual          L2-NORM 
          0                 1           2             4    7     1       0.3362828633E-01       4    7    1         0.1762764014E+01      0.4812391557E+01
          0                 2           2             4    7     1       0.1056735524E-01       4    7    1         0.5574576175E+00      0.1103584631E+01
          0                 3           2             4    7     1       0.3318346171E-02       4    7    1         0.1748454864E+00      0.3247770826E+00
          0                 4           2             4    7     1       0.1041367782E-02       4    7    1         0.5491468598E-01      0.1008556823E+00
          0                 5           2             4    7     1       0.3266191832E-03       4    7    1         0.1723008101E-01      0.3138063774E-01
          0                 6           1             4    7     1       0.1023902371E-03       4    7    1         0.5403433586E-02      0.9767717286E-02
          0                 7           1             4    7     1       0.3208305111E-04       4    7    1         0.1693691622E-02      0.3040753119E-02

    ------------------------------------------------
       NWT REQUIRED            7 OUTER ITERATIONS 
       AND A TOTAL OF         12 INNER ITERATIONS.
    ------------------------------------------------

 NO OUTPUT CONTROL FOR STRESS PERIOD   49   TIME STEP   21
 
 SOLVING FOR HEAD 
                                                   Max.-Head-Change                         Max.-Flux-Residual
  Residual-Control   Outer-Iter.   Inner-Iter.     Column Row Layer    Maximum-Head-Change  Column Row Layer    Maximum-Flux-Residual          L2-NORM 
          0                 1           2             4    7     1       0.3304546753E-01       4    7    1         0.1732567785E+01      0.4741890477E+01
          0                 2           2             4    7     1       0.1038086579E-01       4    7    1         0.5477607500E+00      0.1082523295E+01
          0                 3           2             4    7     1       0.3258928099E-02       4    7    1         0.1717462051E+00      0.3183187886E+00
          0                 4           2             4    7     1       0.1022498489E-02       4    7    1         0.5392817785E-01      0.9886943842E-01
          0                 5           2             4    7     1       0.3206419634E-03       4    7    1         0.1691702621E-01      0.3076476639E-01
          0                 6           1             4    7     1       0.1005004612E-03       4    7    1         0.5304323112E-02      0.9575679594E-02
          0                 7           1             4    7     1       0.3148643960E-04       4    7    1         0.1662369995E-02      0.2980657789E-02

    ------------------------------------------------
       NWT REQUIRED            7 OUTER ITERATIONS 
       AND A TOTAL OF         12 INNER ITERATIONS.
    ------------------------------------------------

 NO OUTPUT CONTROL FOR STRESS PERIOD   49   TIME STEP   22
 
 SOLVING FOR HEAD 
                                                   Max.-Head-Change                         Max.-Flux-Residual
  Residual-Control   Outer-Iter.   Inner-Iter.     Column Row Layer    Maximum-Head-Change  Column Row Layer    Maximum-Flux-Residual          L2-NORM 
          0                 1           2             4    7     1       0.3246390342E-01       4    7    1         0.1702301947E+01      0.4677289383E+01
          0                 2           2             4    7     1       0.1019574562E-01       4    7    1         0.5380982278E+00      0.1063038709E+01
          0                 3           2             4    7     1       0.3200202848E-02       4    7    1         0.1686733594E+00      0.3122167894E+00
          0                 4           2             4    7     1       0.1003917125E-02       4    7    1         0.5295414362E-01      0.9695431597E-01
          0                 5           2             4    7     1       0.3147741276E-03       4    7    1         0.1660900624E-01      0.3016211236E-01
          0                 6           1             4    7     1       0.9865024398E-04       4    7    1         0.5207095803E-02      0.9385813549E-02

    ------------------------------------------------
       NWT REQUIRED            6 OUTER ITERATIONS 
       AND A TOTAL OF         11 INNER ITERATIONS.
    ------------------------------------------------

 NO OUTPUT CONTROL FOR STRESS PERIOD   49   TIME STEP   23
 
 SOLVING FOR HEAD 
                                                   Max.-Head-Change                         Max.-Flux-Residual
  Residual-Control   Outer-Iter.   Inner-Iter.     Column Row Layer    Maximum-Head-Change  Column Row Layer    Maximum-Flux-Residual          L2-NORM 
          0                 1           2             4    7     1       0.3188757000E-01       4    7    1         0.1672201314E+01      0.4617606774E+01
          0                 2           2             4    7     1       0.1001305319E-01       4    7    1         0.5285333192E+00      0.1044825251E+01
          0                 3           2             4    7     1       0.3142453332E-02       4    7    1         0.1656437169E+00      0.3064563817E+00
          0                 4           2             4    7     1       0.9857018722E-03       4    7    1         0.5199707949E-01      0.9516607126E-01
          0                 5           2             4    7     1       0.3090384676E-03       4    7    1         0.1630727733E-01      0.2960666710E-01
          0                 6           1             4    7     1       0.9684663647E-04       4    7    1         0.5112123320E-02      0.9213204089E-02

    ------------------------------------------------
       NWT REQUIRED            6 OUTER ITERATIONS 
       AND A TOTAL OF         11 INNER ITERATIONS.
    ------------------------------------------------

 NO OUTPUT CONTROL FOR STRESS PERIOD   49   TIME STEP   24
 
 SOLVING FOR HEAD 
                                                   Max.-Head-Change                         Max.-Flux-Residual
  Residual-Control   Outer-Iter.   Inner-Iter.     Column Row Layer    Maximum-Head-Change  Column Row Layer    Maximum-Flux-Residual          L2-NORM 
          0                 1           2             4    7     1       0.3131873649E-01       4    7    1         0.1642406582E+01      0.4562029420E+01
          0                 2           2             4    7     1       0.9833362450E-02       4    7    1         0.5191014648E+00      0.1027724726E+01
          0                 3           2             4    7     1       0.3085823797E-02       4    7    1         0.1626662564E+00      0.3010622052E+00
          0                 4           2             4    7     1       0.9678872584E-03       4    7    1         0.5105923470E-01      0.9348266666E-01
          0                 5           2             4    7     1       0.3034421902E-03       4    7    1         0.1601236793E-01      0.2908235477E-01
          0                 6           1             4    7     1       0.9509057970E-04       4    7    1         0.5019510044E-02      0.9050010767E-02

    ------------------------------------------------
       NWT REQUIRED            6 OUTER ITERATIONS 
       AND A TOTAL OF         11 INNER ITERATIONS.
    ------------------------------------------------

 NO OUTPUT CONTROL FOR STRESS PERIOD   49   TIME STEP   25
 
 SOLVING FOR HEAD 
                                                   Max.-Head-Change                         Max.-Flux-Residual
  Residual-Control   Outer-Iter.   Inner-Iter.     Column Row Layer    Maximum-Head-Change  Column Row Layer    Maximum-Flux-Residual          L2-NORM 
          0                 1           2             4    7     1       0.3075931192E-01       4    7    1         0.1613035211E+01      0.4509951608E+01
          0                 2           2             4    7     1       0.9657147529E-02       4    7    1         0.5098325703E+00      0.1011638348E+01
          0                 3           2             4    7     1       0.3030426480E-02       4    7    1         0.1597483327E+00      0.2959566044E+00
          0                 4           2             4    7     1       0.9504978421E-03       4    7    1         0.5014232267E-01      0.9188303002E-01
          0                 5           2             4    7     1       0.2979898869E-03       4    7    1         0.1572464253E-01      0.2858304439E-01
          0                 6           1             4    7     1       0.9338260189E-04       4    7    1         0.4929319735E-02      0.8894402017E-02

    ------------------------------------------------
       NWT REQUIRED            6 OUTER ITERATIONS 
       AND A TOTAL OF         11 INNER ITERATIONS.
    ------------------------------------------------

 NO OUTPUT CONTROL FOR STRESS PERIOD   49   TIME STEP   26
 
 SOLVING FOR HEAD 
                                                   Max.-Head-Change                         Max.-Flux-Residual
  Residual-Control   Outer-Iter.   Inner-Iter.     Column Row Layer    Maximum-Head-Change  Column Row Layer    Maximum-Flux-Residual          L2-NORM 
          0                 1           2             3    7     1       0.3052466193E-01       4    7    1         0.1584190841E+01      0.4483298423E+01
          0                 2           2             4    7     1       0.9484724474E-02       4    7    1         0.5007497829E+00      0.9990282592E+00
          0                 3           2             4    7     1       0.2976313044E-02       4    7    1         0.1568945267E+00      0.2911436948E+00
          0                 4           2             4    7     1       0.9335362089E-03       4    7    1         0.4924701245E-01      0.9034677336E-01
          0                 5           2             4    7     1       0.2926784581E-03       4    7    1         0.1544409065E-01      0.2810247166E-01
          0                 6           1             4    7     1       0.9172060613E-04       4    7    1         0.4841485778E-02      0.8744492470E-02

    ------------------------------------------------
       NWT REQUIRED            6 OUTER ITERATIONS 
       AND A TOTAL OF         11 INNER ITERATIONS.
    ------------------------------------------------

 NO OUTPUT CONTROL FOR STRESS PERIOD   49   TIME STEP   27
 
 SOLVING FOR HEAD 
                                                   Max.-Head-Change                         Max.-Flux-Residual
  Residual-Control   Outer-Iter.   Inner-Iter.     Column Row Layer    Maximum-Head-Change  Column Row Layer    Maximum-Flux-Residual          L2-NORM 
          0                 1           2             3    7     1       0.3050121061E-01       4    7    1         0.1555933024E+01      0.4414321894E+01
          0                 2           2             4    7     1       0.9316525907E-02       4    7    1         0.4918740601E+00      0.9819089732E+00
          0                 3           2             4    7     1       0.2923634666E-02       4    7    1         0.1541121825E+00      0.2864487684E+00
          0                 4           2             4    7     1       0.9170548045E-03       4    7    1         0.4837586812E-01      0.8889089091E-01
          0                 5           2             4    7     1       0.2875259431E-03       4    7    1         0.1517160018E-01      0.2764685122E-01
          0                 6           1             4    7     1       0.9011074402E-04       4    7    1         0.4756312975E-02      0.8602236401E-02

    ------------------------------------------------
       NWT REQUIRED            6 OUTER ITERATIONS 
       AND A TOTAL OF         11 INNER ITERATIONS.
    ------------------------------------------------

 NO OUTPUT CONTROL FOR STRESS PERIOD   49   TIME STEP   28
 
 SOLVING FOR HEAD 
                                                   Max.-Head-Change                         Max.-Flux-Residual
  Residual-Control   Outer-Iter.   Inner-Iter.     Column Row Layer    Maximum-Head-Change  Column Row Layer    Maximum-Flux-Residual          L2-NORM 
          0                 1           2             3    7     1       0.3047068495E-01       4    7    1         0.1528328556E+01      0.4370055003E+01
          0                 2           2             4    7     1       0.9152700025E-02       4    7    1         0.4832185963E+00      0.9681604849E+00
          0                 3           2             4    7     1       0.2872398244E-02       4    7    1         0.1514032140E+00      0.2820392484E+00
          0                 4           2             4    7     1       0.9010443883E-03       4    7    1         0.4752884877E-01      0.8749876293E-01
          0                 5           2             4    7     1       0.2825261550E-03       4    7    1         0.1490697356E-01      0.2721043799E-01
          0                 6           1             4    7     1       0.8855012814E-04       4    7    1         0.4673686140E-02      0.8465883154E-02

    ------------------------------------------------
       NWT REQUIRED            6 OUTER ITERATIONS 
       AND A TOTAL OF         11 INNER ITERATIONS.
    ------------------------------------------------

 NO OUTPUT CONTROL FOR STRESS PERIOD   49   TIME STEP   29
 
 SOLVING FOR HEAD 
                                                   Max.-Head-Change                         Max.-Flux-Residual
  Residual-Control   Outer-Iter.   Inner-Iter.     Column Row Layer    Maximum-Head-Change  Column Row Layer    Maximum-Flux-Residual          L2-NORM 
          0                 1           2             3    7     1       0.3043342640E-01       4    7    1         0.1501414284E+01      0.4327644040E+01
          0                 2           2             4    7     1       0.8993354503E-02       4    7    1         0.4747914379E+00      0.9550383080E+00
          0                 3           2             4    7     1       0.2822620694E-02       4    7    1         0.1487691661E+00      0.2778184984E+00
          0                 4           2             4    7     1       0.8855055794E-03       4    7    1         0.4670616899E-01      0.8616402404E-01
          0                 5           2             4    7     1       0.2776779808E-03       4    7    1         0.1465020291E-01      0.2679165385E-01
          0                 6           1             4    7     1       0.8703804094E-04       4    7    1         0.4593581727E-02      0.8334969479E-02

    ------------------------------------------------
       NWT REQUIRED            6 OUTER ITERATIONS 
       AND A TOTAL OF         11 INNER ITERATIONS.
    ------------------------------------------------

 NO OUTPUT CONTROL FOR STRESS PERIOD   49   TIME STEP   30



 STREAM LISTING     PERIOD     49   STEP       30

 LAYER ROW COL. STREAM  RCH.  FLOW INTO     FLOW TO   FLOW OUT OF   OVRLND.     DIRECT     STREAM       STREAM     STREAM     STREAM   STREAMBED  STREAMBED
                SEG.NO.  NO.  STRM. RCH.    AQUIFER    STRM. RCH.    RUNOFF     PRECIP       ET          HEAD       DEPTH      WIDTH   CONDCTNC.   GRADIENT

   1    1    1     1     1    1.4250E+01  1.8169E-01   1.4068E+01  0.000E+00  0.000E+00  0.000E+00  1.09404E+03  9.953E-01  1.011E+01  4.547E-02  1.332E+00
   1    2    2     1     2    1.4068E+01  2.7999E-01   1.3788E+01  0.000E+00  0.000E+00  0.000E+00  1.08905E+03  9.906E-01  1.002E+01  7.016E-02  1.330E+00
   1    3    3     1     3    1.3788E+01  2.3745E-01   1.3551E+01  0.000E+00  0.000E+00  0.000E+00  1.08340E+03  9.852E-01  9.930E+00  5.958E-02  1.328E+00
   1    3    4     1     4    1.3551E+01  2.1755E-01   1.3333E+01  0.000E+00  0.000E+00  0.000E+00  1.07839E+03  9.805E-01  9.848E+00  5.465E-02  1.327E+00
   1    4    5     2     1    1.1333E+01  2.9214E-01   1.1041E+01  0.000E+00  0.000E+00  0.000E+00  1.07268E+03  7.454E-01  1.200E+01  7.800E-02  1.248E+00
   1    5    6     2     2    1.1041E+01  2.2410E-01   1.0817E+01  0.000E+00  0.000E+00  0.000E+00  1.06724E+03  7.350E-01  1.200E+01  6.000E-02  1.245E+00
   1    6    6     2     3    1.0817E+01  2.2356E-01   1.0594E+01  0.000E+00  0.000E+00  0.000E+00  1.06252E+03  7.259E-01  1.200E+01  6.000E-02  1.242E+00
   1    7    6     2     4    1.0594E+01  2.2301E-01   1.0371E+01  0.000E+00  0.000E+00  0.000E+00  1.05779E+03  7.168E-01  1.200E+01  6.000E-02  1.239E+00
   1    8    6     2     5    1.0371E+01  2.2246E-01   1.0148E+01  0.000E+00  0.000E+00  0.000E+00  1.05307E+03  7.076E-01  1.200E+01  6.000E-02  1.236E+00
   1    3    5     3     1    2.0000E+00  2.8252E-01   1.7175E+00  0.000E+00  0.000E+00  0.000E+00  1.07555E+03  1.909E+00  9.636E+00  7.227E-02  1.955E+00
   1    3    6     3     2    1.7175E+00  2.4905E-01   1.4684E+00  0.000E+00  0.000E+00  0.000E+00  1.07264E+03  1.727E+00  8.909E+00  6.682E-02  1.864E+00
   1    3    7     3     3    1.4684E+00  1.9718E-01   1.2712E+00  0.000E+00  0.000E+00  0.000E+00  1.06987E+03  1.555E+00  8.218E+00  5.547E-02  1.777E+00
   1    4    8     3     4    1.2712E+00  2.2567E-01   1.0456E+00  0.000E+00  0.000E+00  0.000E+00  1.06682E+03  1.364E+00  7.455E+00  6.709E-02  1.682E+00
   1    5    8     3     5    1.0456E+00  1.5790E-01   8.8768E-01  0.000E+00  0.000E+00  0.000E+00  1.06362E+03  1.164E+00  6.655E+00  4.991E-02  1.582E+00
   1    6    8     3     6    8.8768E-01  5.5980E-02   8.3170E-01  0.000E+00  0.000E+00  0.000E+00  1.06158E+03  1.036E+00  6.145E+00  1.844E-02  1.518E+00
   1    5   10     4     1    1.0000E+01  9.0919E-02   9.9091E+00  0.000E+00  0.000E+00  0.000E+00  1.07836E+03  6.368E-01  1.000E+01  2.500E-02  1.212E+00
   1    5    9     4     2    9.9091E+00  1.8158E-01   9.7275E+00  0.000E+00  0.000E+00  0.000E+00  1.07154E+03  6.315E-01  1.000E+01  5.000E-02  1.211E+00
   1    6    8     4     3    9.7275E+00  1.2689E-01   9.6006E+00  0.000E+00  0.000E+00  0.000E+00  1.06381E+03  6.256E-01  1.000E+01  3.500E-02  1.209E+00
   1    6    8     5     1    1.0432E+01  2.2686E-01   1.0205E+01  0.000E+00  0.000E+00  0.000E+00  1.05868E+03  6.790E-01  1.542E+01  6.166E-02  1.226E+00
   1    7    7     5     2    1.0205E+01  2.7894E-01   9.9265E+00  0.000E+00  0.000E+00  0.000E+00  1.05417E+03  6.732E-01  1.519E+01  7.594E-02  1.224E+00
   1    8    7     5     3    9.9265E+00  1.9221E-01   9.7343E+00  0.000E+00  0.000E+00  0.000E+00  1.04992E+03  6.676E-01  1.497E+01  5.241E-02  1.223E+00
   1    8    6     5     4    9.7343E+00  1.3577E-01   9.5985E+00  0.000E+00  0.000E+00  0.000E+00  1.04691E+03  6.637E-01  1.482E+01  3.706E-02  1.221E+00
   1    9    6     6     1    1.9747E+01  2.4336E-01   1.9503E+01  0.000E+00  0.000E+00  0.000E+00  1.04378E+03  1.056E+00  1.200E+01  6.000E-02  1.352E+00
   1   10    7     6     2    1.9503E+01  2.4289E-01   1.9260E+01  0.000E+00  0.000E+00  0.000E+00  1.03923E+03  1.048E+00  1.200E+01  6.000E-02  1.349E+00
   1   11    7     6     3    1.9260E+01  2.4241E-01   1.9018E+01  0.000E+00  0.000E+00  0.000E+00  1.03468E+03  1.040E+00  1.200E+01  6.000E-02  1.347E+00
   1   12    7     6     4    1.9018E+01  2.4194E-01   1.8776E+01  0.000E+00  0.000E+00  0.000E+00  1.03012E+03  1.032E+00  1.200E+01  6.000E-02  1.344E+00
   1   13    7     6     5    1.8776E+01  1.1188E-03   1.8775E+01  0.000E+00  0.000E+00  0.000E+00  1.02694E+03  1.028E+00  1.200E+01  2.400E-02  1.554E-02
   1   14    9     7     1    1.5000E+02  1.3554E+00   1.4864E+02  0.000E+00  0.000E+00  0.000E+00  1.03987E+03  2.288E+00  5.529E+01  5.593E-01  8.078E-01
   1   13    8     7     2    1.4864E+02  1.8907E+00   1.4675E+02  0.000E+00  0.000E+00  0.000E+00  1.03478E+03  2.279E+00  5.526E+01  6.148E-01  1.025E+00
   1   13    7     7     3    1.4675E+02  1.5627E+00   1.4519E+02  0.000E+00  0.000E+00  0.000E+00  1.02969E+03  2.270E+00  5.521E+01  5.584E-01  9.328E-01
   1   13    6     8     1    1.6397E+02  9.8759E-01   1.6298E+02  0.000E+00  0.000E+00  0.000E+00  1.02478E+03  2.909E+00  4.218E+01  4.299E-01  7.658E-01
   1   13    5     8     2    1.6298E+02  2.4913E-01   1.6273E+02  0.000E+00  0.000E+00  0.000E+00  1.01853E+03  2.905E+00  4.212E+01  4.292E-01  1.935E-01
   1   13    4     8     3    1.6273E+02 -2.1565E+00   1.6489E+02  0.000E+00  0.000E+00  0.000E+00  1.01229E+03  2.911E+00  4.222E+01  4.302E+00 -1.671E-01
   1   13    3     8     4    1.6489E+02 -3.5219E+00   1.6841E+02  0.000E+00  0.000E+00  0.000E+00  1.00606E+03  2.930E+00  4.249E+01  4.330E+00 -2.711E-01
   1   13    2     8     5    1.6841E+02 -2.5502E+00   1.7096E+02  0.000E+00  0.000E+00  0.000E+00  9.99825E+02  2.950E+00  4.278E+01  4.359E+00 -1.950E-01
   1   13    1     8     6    1.7096E+02 -1.9776E+00   1.7294E+02  0.000E+00  0.000E+00  0.000E+00  9.94840E+02  2.965E+00  4.299E+01  2.629E+00 -2.508E-01
   1    8    6     9     1    0.0000E+00  0.0000E+00   0.0000E+00  0.000E+00  0.000E+00  0.000E+00  1.07875E+03  0.000E+00  4.000E+00  0.000E+00  1.000E+00
   1    8    5     9     2    0.0000E+00  0.0000E+00   0.0000E+00  0.000E+00  0.000E+00  0.000E+00  1.07825E+03  0.000E+00  4.000E+00  0.000E+00  1.000E+00





UNSATURATED ZONE PACKAGE VOLUMETRIC BUDGET FOR  TIME STEP    30 STRESS PERIOD   49
  ------------------------------------------------------------------------------



     CUMULATIVE VOLUMES      L**3       RATES FOR THIS TIME STEP      L**3/T
     ------------------                 ------------------------

           IN:                                      IN:
           ---                                      ---
        INFILTRATION =  2440929178.6560          INFILTRATION =           0.8475

          OUT:                                     OUT:
          ----                                     ----
              UZF ET =  1706278777.0770                UZF ET =           0.7500
        UZF RECHARGE =   312565691.6655          UZF RECHARGE =          13.8593

            IN - OUT =   422084709.9135              IN - OUT =         -13.7618

          STORAGE:                                 STORAGE:
          --------                                 --------
      STORAGE CHANGE =   423752987.0603        STORAGE CHANGE =         -13.7618

 PERCENT DISCREPANCY IS DIFFERENCE BETWEEN IN-OUT MINUS CHANGE IN STORAGE
 DIVIDED BY THE AVERAGE OF IN AND OUT TIMES 100

 PERCENT DISCREPANCY =          -0.02     PERCENT DISCREPANCY =           0.00






1
  VOLUMETRIC BUDGET FOR AGRICULTURAL FIELDS AT  END OF TIME STEP   30, STRESS PERIOD  49
  ------------------------------------------------------------------------------

     CUMULATIVE VOLUMES      L**3       RATES FOR THIS TIME STEP      L**3/T
     ------------------                 ------------------------

           IN:                                      IN:
           ---                                      ---
           AG WELLS      =  1123160832.0000             AG WELLS      =           0.0000
      DIVERSION SEGMENTS =  1210745088.0000        DIVERSION SEGMENTS =           0.0000
           GW IRRIGATION =           0.0000             GW IRRIGATION =           0.0000
           SW IRRIGATION =           0.0000             SW IRRIGATION =           0.0000
        SYSTEM LOSSES GW =           0.0000          SYSTEM LOSSES GW =           0.0000
        SYSTEM LOSSES SW =           0.0000          SYSTEM LOSSES SW =           0.0000

                TOTAL IN =  2333905920.0000                  TOTAL IN =           0.0000

          OUT:                                     OUT:
          ----                                     ----
           AG WELLS      =           0.0000             AG WELLS      =           0.0000
      DIVERSION SEGMENTS =           0.0000        DIVERSION SEGMENTS =           0.0000
           GW IRRIGATION =  1123160832.0000             GW IRRIGATION =           0.0000
           SW IRRIGATION =  1210767104.0000             SW IRRIGATION =           0.0000
        SYSTEM LOSSES GW =           0.0000          SYSTEM LOSSES GW =           0.0000
        SYSTEM LOSSES SW =           0.0000          SYSTEM LOSSES SW =           0.0000

               TOTAL OUT =  2333927936.0000                 TOTAL OUT =           0.0000

                IN - OUT =      -22016.0000                  IN - OUT =           0.0000

     PERCENT DISCREPANCY =          -0.00         PERCENT DISCREPANCY =           0.00



1
  VOLUMETRIC BUDGET FOR ENTIRE MODEL AT END OF TIME STEP   30, STRESS PERIOD  49
  ------------------------------------------------------------------------------

     CUMULATIVE VOLUMES      L**3       RATES FOR THIS TIME STEP      L**3/T
     ------------------                 ------------------------

           IN:                                      IN:
           ---                                      ---
             STORAGE     =  1744219392.0000               STORAGE     =           7.0526
       CONSTANT HEAD     =           0.0000         CONSTANT HEAD     =           0.0000
     HEAD DEP BOUNDS     =    36148620.0000       HEAD DEP BOUNDS     =           0.2871
      STREAM LEAKAGE     =  1518019072.0000        STREAM LEAKAGE     =          11.5206
        UZF RECHARGE     =   312565792.0000          UZF RECHARGE     =          13.8593
               GW ET     =           0.0000                 GW ET     =           0.0000
     SURFACE LEAKAGE     =           0.0000       SURFACE LEAKAGE     =           0.0000
           AG WELLS      =           0.0000             AG WELLS      =           0.0000

                TOTAL IN =  3610952704.0000                  TOTAL IN =          32.7197

          OUT:                                     OUT:
          ----                                     ----
             STORAGE     =  1105273728.0000               STORAGE     =          22.2191
       CONSTANT HEAD     =           0.0000         CONSTANT HEAD     =           0.0000
     HEAD DEP BOUNDS     =    36700536.0000       HEAD DEP BOUNDS     =           0.2885
      STREAM LEAKAGE     =  1342640000.0000        STREAM LEAKAGE     =          10.2062
        UZF RECHARGE     =           0.0000          UZF RECHARGE     =           0.0000
               GW ET     =     3143644.7500                 GW ET     =           0.0000
     SURFACE LEAKAGE     =           0.0000       SURFACE LEAKAGE     =           0.0000
           AG WELLS      =  1123160832.0000             AG WELLS      =           0.0000

               TOTAL OUT =  3610918656.0000                 TOTAL OUT =          32.7138

                IN - OUT =       34048.0000                  IN - OUT =       5.9280E-03

     PERCENT DISCREPANCY =           0.00         PERCENT DISCREPANCY =           0.02






         TIME SUMMARY AT END OF TIME STEP   30 IN STRESS PERIOD   49
                    SECONDS     MINUTES      HOURS       DAYS        YEARS
                    -----------------------------------------------------------
   TIME STEP LENGTH  87667.      1461.1      24.352      1.0147     2.77799E-03
 STRESS PERIOD TIME 2.63000E+06  43833.      730.56      30.440     8.33397E-02
         TOTAL TIME 1.26325E+08 2.10542E+06  35090.      1462.1      4.0030    
1


 Run end date and time (yyyy/mm/dd hh:mm:ss): 2021/03/08 11:22:09
 Elapsed run time: 5.725 Seconds

